                                  MODFLOW-USG      
      U.S. GEOLOGICAL SURVEY MODULAR FINITE-DIFFERENCE GROUNDWATER FLOW MODEL
                            VERSION 1.4.00 01/13/2016

 LIST FILE: flowdivert.list
                         UNIT    2

 OPENING flowdivert.dis
 FILE TYPE:DIS   UNIT   11   STATUS:OLD    
 FORMAT:FORMATTED              ACCESS:SEQUENTIAL          

 OPENING flowdivert.bas
 FILE TYPE:BAS6   UNIT   13   STATUS:OLD    
 FORMAT:FORMATTED              ACCESS:SEQUENTIAL          

 OPENING flowdivert.lpf
 FILE TYPE:LPF   UNIT   31   STATUS:OLD    
 FORMAT:FORMATTED              ACCESS:SEQUENTIAL          

 OPENING flowdivert.sms
 FILE TYPE:SMS   UNIT   32   STATUS:OLD    
 FORMAT:FORMATTED              ACCESS:SEQUENTIAL          

 OPENING flowdivert.oc
 FILE TYPE:OC   UNIT   14   STATUS:OLD    
 FORMAT:FORMATTED              ACCESS:SEQUENTIAL          

 OPENING flowdivert.hds
 FILE TYPE:DATA(BINARY)   UNIT   51   STATUS:REPLACE
 FORMAT:UNFORMATTED            ACCESS:STREAM              

 OPENING flowdivert.ddn
 FILE TYPE:DATA(BINARY)   UNIT   52   STATUS:REPLACE
 FORMAT:UNFORMATTED            ACCESS:STREAM              

 OPENING flowdivert.cbc
 FILE TYPE:DATA(BINARY)   UNIT   53   STATUS:REPLACE
 FORMAT:UNFORMATTED            ACCESS:STREAM              

 BAS -- BASIC PACKAGE-USG      1.4.00 01/13/2016                        INPUT READ FROM UNIT   13

 # Basic package file for MODFLOW, generated by Flopy.                           
 THE FREE FORMAT OPTION HAS BEEN SELECTED

 DIS -- UNSTRUCTURED GRID DISCRETIZATION PACKAGE, VERSION 1 : 5/17/2010 - INPUT READ FROM UNIT   11
 # Discretization file for MODFLOW, generated by Flopy.
    1 LAYERS        51 ROWS        51 COLUMNS
    1 STRESS PERIOD(S) IN SIMULATION
 MODEL TIME UNIT IS DAYS
 MODEL LENGTH UNIT IS METERS
  Confining bed flag for each layer:
   0

 DIS -- UNSTRUCTURED GRID DISCRETIZATION PACKAGE, VERSION 1 : 5/17/2010 - INPUT READ FROM UNIT   11

                     DELR =   1.96078    

                     DELC =   1.96078    

 TOP ELEVATION OF LAYER 1 =   10.0000    



             MODEL LAYER BOTTOM EL. FOR LAYER   1
 READING ON UNIT   11 WITH FORMAT: (51G15.6)           


 STRESS PERIOD     LENGTH       TIME STEPS     MULTIPLIER FOR DELT    SS FLAG
 ----------------------------------------------------------------------------
        1         1.000000          1                    1.000         SS

 STEADY-STATE SIMULATION






                     BOUNDARY ARRAY FOR LAYER   1
 READING ON UNIT   13 WITH FORMAT: (51I10)             

 AQUIFER HEAD WILL BE SET TO  -999.99     AT ALL NO-FLOW NODES (IBOUND=0).



                       INITIAL HEAD FOR LAYER   1
 READING ON UNIT   13 WITH FORMAT: (51G15.6)           
 # Output control package file for MODFLOW, generated by Flopy.

 OUTPUT CONTROL IS SPECIFIED ONLY AT TIME STEPS FOR WHICH OUTPUT IS DESIRED
 COMPACT CELL-BY-CELL BUDGET FILES WILL BE WRITTEN
 AUXILIARY DATA WILL BE SAVED IN CELL-BY-CELL BUDGET FILES
 HEAD PRINT FORMAT CODE IS   0    DRAWDOWN PRINT FORMAT CODE IS   0
 HEADS WILL BE SAVED ON UNIT   51    DRAWDOWNS WILL BE SAVED ON UNIT   52

 LPF -- LAYER-PROPERTY FLOW PACKAGE, VERSION 7, 5/2/2005
         INPUT READ FROM UNIT   31
 # LPF for MODFLOW, generated by Flopy.
 CELL-BY-CELL FLOWS WILL BE SAVED ON UNIT   53
 HEAD AT CELLS THAT CONVERT TO DRY= -1.00000E+30
 No named parameters

   LAYER FLAGS:
 LAYER       LAYTYP        LAYAVG         CHANI        LAYVKA        LAYWET
 ---------------------------------------------------------------------------
    1             4             0     1.000E+00             0             0

   INTERPRETATION OF LAYER FLAGS:
                        INTERBLOCK     HORIZONTAL    DATA IN
         LAYER TYPE   TRANSMISSIVITY   ANISOTROPY   ARRAY VKA   WETTABILITY
 LAYER      (LAYTYP)      (LAYAVG)       (CHANI)      (LAYVKA)      (LAYWET)
 ---------------------------------------------------------------------------
    1      UPSTREAM      HARMONIC     1.000E+00    VERTICAL K  NON-WETTABLE

 WETTING CAPABILITY IS NOT ACTIVE IN ANY LAYER

    HYD. COND. ALONG ROWS =   1.00000     FOR LAYER   1

      VERTICAL HYD. COND. =   1.00000     FOR LAYER   1

 SMS -- SPARSE MATRIX SOLVER PACKAGE, VERSION 7, 5/2/2005
         INPUT READ FROM UNIT 32
 # SMS for MODFLOW-USG, generated by Flopy.
 # HCLOSE HICLOSE MXITER ITER1 IPRSMS NONLINMETH LINMETH
 No named parameters
 ALL SOLVER INPUT DATA WILL BE READ 
FROM THE SOLVER INPUT FILE. 
 # THETA AKAPPA GAMMA AMOMENTUM NUMTRACK BTOL BREDUC RESLIM
 OUTER ITERATION CONVERGENCE CRITERION (HCLOSE) =    0.100000E-05
 INNER ITERATION CONVERGENCE CRITERION (HICLOSE) =    0.100000E-05
 MAXIMUM NUMBER OF OUTER ITERATIONS (MXITER)     =       500
 MAXIMUM NUMBER OF INNER ITERATIONS (ITER1)      =       100
 SOLVER PRINTOUT INDEX             (IPRSMS)      =         1
 NONLINEAR ITERATION METHOD    (NONLINMETH)      =         1
 LINEAR SOLUTION METHOD           (LINMETH)      =         2
 D-B-D WEIGHT REDUCTION FACTOR      (THETA)      =    0.700000E+00
 D-B-D WEIGHT INCREASE INCREMENT    (KAPPA)      =    0.800000E-01
 D-B-D PREVIOUS HISTORY FACTOR      (GAMMA)      =    0.500000E-01
 MOMENTUM TERM                  (AMOMENTUM)      =    0.000000E+00
 MAXIMUM NUMBER OF BACKTRACKS    (NUMTRACK)      =        20
 BACKTRACKING TOLERANCE FACTOR       (BTOL)      =    0.200000E+01
 BACKTRACKING REDUCTION FACTOR     (BREDUC)      =    0.200000E+00
 BACKTRACKING REIDUAL LIMIT       (RES_LIM)      =    0.500000E-03
 ***Newton Linearization will be used***

 ***PCGU linear solver will be used***

 PCGU -- UNSTRUCTURED CONJUGATE-GRADIENT SOLUTION PACKAGE, VERSION 7.02, 08/13/2013
 # [CLIN] IPC ISCL IORD RCLOSEPCGU [RELAXPCGU]

              SOLUTION BY THE CONJUGATE-GRADIENT METHOD
 ------------------------------------------------------------------
 MAXIMUM OF    500 CALLS OF SOLUTION ROUTINE
 MAXIMUM OF    100 INTERNAL ITERATIONS PER CALL TO SOLUTION ROUTINE
 LINEAR ACCELERATION METHOD            = BCGS      
 MATRIX PRECONDITIONING TYPE           = MOD. INCOMPLETE LU  
 MATRIX SCALING APPROACH               = NO SCALING          
 MATRIX REORDERING APPROACH            = ORIGINAL ORDERING        
 HEAD CHANGE CRITERION FOR CLOSURE     =    0.10000E-05
 RESIDUAL CHANGE CRITERION FOR CLOSURE =    0.50000E+03
 RELAXATION FACTOR                     =    0.00000E+00
  ONLY USED WITH MILU0 PRECONDITIONER



1
                            STRESS PERIOD NO.    1, LENGTH =   1.000000    
                            -----------------------------------------------

                              NUMBER OF TIME STEPS =     1

                               MULTIPLIER FOR DELT =     1.000

                            INITIAL TIME STEP SIZE =   1.000000    

 SOLVING FOR HEAD 

 Outer-Iteration  Inner-Iteration  Backtracking  Number of        Incoming       Outgoing  Maximum HeadChange      Maximum Head Change
     Number           Count           Flag       Backtracks       Residual       Residual           Value              Location
        1                             0             0           125521.          125521.    
        1               52                                                                        -4.94706               1    26    50  lay row col
        2                             0             0           3.35751          3.35751    
        2               38                                                                         1.65042               1    33    28  lay row col
        3                             1             1           26.3916          2.24201    
        3               37                                                                        0.836679               1    31    23  lay row col
        4                             0             0           1.66900          1.66900    
        4               30                                                                        0.241045               1    28    23  lay row col
        5                             0             0          0.319644E-01     0.319644E-01
        5               25                                                                        0.615459E-01           1    28    24  lay row col
        6                             0             0          0.824916E-03     0.824916E-03
        6               20                                                                       -0.138482E-01           1    29    35  lay row col
        7                             0             0          0.421142E-04     0.421142E-04
        7                9                                                                       -0.190068E-02           1    29    36  lay row col
        8                             0             0          0.178854E-05     0.178854E-05
        8                5                                                                       -0.422369E-03           1    29    36  lay row col
        9                             0             0          0.417575E-07     0.417575E-07
        9                3                                                                       -0.570923E-04           1    29    36  lay row col
       10                             0             0          0.641523E-09     0.641523E-09
       10                2                                                                        0.444545E-05           1    25    39  lay row col
       11                             0             0          0.115653E-09     0.115653E-09
       11                2                                                                        0.201112E-05           1    25    39  lay row col
       12                             0             0          0.444366E-10     0.444366E-10
       12                1                                                                        0.681926E-06           1    25    39  lay row col


    12 CALLS TO SPARSE MATRIX SOLVER PACKAGE  IN FLOW TIME STEP   1 STRESS PERIOD   1

 TOTAL OF      12OUTER ITERATIONS
  MAXIMUM CHANGE FOR EACH ITERATION:
  MAX. CHANGE   LAYER,  ROW,  COL MAX. CHANGE   LAYER,  ROW,  COL MAX. CHANGE   LAYER,  ROW,  COL MAX. CHANGE   LAYER,  ROW,  COL MAX. CHANGE   LAYER,  ROW,  COL
 ------------------------------------------------------------------------------------------------------------------------------------------
   -4.947     (    1,   26,   50)   1.650     (    1,   33,   28)  0.8367     (    1,   31,   23)  0.2410     (    1,   28,   23)  0.6155E-01 (    1,   28,   24)
  -0.1385E-01 (    1,   29,   35) -0.1901E-02 (    1,   29,   36) -0.4224E-03 (    1,   29,   36) -0.5709E-04 (    1,   29,   36)  0.4445E-05 (    1,   25,   39)
   0.2011E-05 (    1,   25,   39)  0.6819E-06 (    1,   25,   39)

 OUTPUT CONTROL FOR STRESS PERIOD        1   TIME STEP        1
    PRINT HEAD FOR ALL LAYERS
    PRINT BUDGET
    SAVE HEAD FOR ALL LAYERS
    SAVE BUDGET
 UBDSV2 SAVING "   CONSTANT HEAD" ON UNIT  53 AT TIME STEP      1, STRESS PERIOD      1
 UBDSV1 SAVING "FLOW RIGHT FACE " ON UNIT  53 AT TIME STEP      1, STRESS PERIOD      1
 UBDSV1 SAVING "FLOW FRONT FACE " ON UNIT  53 AT TIME STEP      1, STRESS PERIOD      1
 UBDSV1 SAVING "FLOW LOWER FACE " ON UNIT  53 AT TIME STEP      1, STRESS PERIOD      1
1
              HEAD IN LAYER   1 AT END OF TIME STEP   1 IN STRESS PERIOD    1
  ---------------------------------------------------------------------------

            1           2           3           4           5           6           7           8           9          10
           11          12          13          14          15          16          17          18          19          20
           21          22          23          24          25          26          27          28          29          30
           31          32          33          34          35          36          37          38          39          40
           41          42          43          44          45          46          47          48          49          50
           51
 ........................................................................................................................
   1    10.00       9.945       9.889       9.832       9.775       9.717       9.657       9.596       9.534       9.470    
        9.403       9.335       9.264       9.190       9.114       9.034       8.951       8.865       8.774       8.681    
        8.583       8.482       8.376       8.267       8.155       8.039       7.921       7.800       7.677       7.552    
        7.427       7.301       7.175       7.049       6.924       6.799       6.675       6.552       6.430       6.310    
        6.190       6.072       5.954       5.836       5.719       5.602       5.484       5.366       5.246       5.124    
        5.000    
   2    10.00       9.945       9.889       9.833       9.776       9.718       9.658       9.598       9.535       9.471    
        9.405       9.337       9.266       9.193       9.116       9.037       8.954       8.868       8.777       8.683    
        8.585       8.484       8.378       8.269       8.156       8.040       7.922       7.800       7.677       7.552    
        7.426       7.300       7.173       7.046       6.920       6.796       6.671       6.549       6.427       6.306    
        6.187       6.068       5.951       5.834       5.717       5.600       5.483       5.365       5.245       5.124    
        5.000    
   3    10.00       9.945       9.890       9.834       9.777       9.719       9.660       9.600       9.538       9.475    
        9.409       9.341       9.270       9.197       9.121       9.042       8.959       8.872       8.782       8.688    
        8.590       8.487       8.382       8.272       8.159       8.043       7.923       7.802       7.678       7.552    
        7.425       7.298       7.170       7.042       6.915       6.789       6.665       6.542       6.420       6.300    
        6.180       6.062       5.945       5.829       5.712       5.596       5.479       5.362       5.243       5.123    
        5.000    
   4    10.00       9.946       9.891       9.835       9.779       9.722       9.663       9.604       9.542       9.479    
        9.414       9.347       9.277       9.204       9.128       9.049       8.966       8.879       8.789       8.694    
        8.596       8.493       8.387       8.277       8.163       8.046       7.926       7.803       7.678       7.552    
        7.424       7.295       7.166       7.037       6.909       6.781       6.655       6.531       6.409       6.289    
        6.170       6.053       5.936       5.821       5.705       5.590       5.475       5.358       5.241       5.122    
        5.000    
   5    10.00       9.946       9.892       9.837       9.782       9.725       9.667       9.608       9.548       9.486    
        9.421       9.355       9.285       9.213       9.137       9.058       8.975       8.888       8.797       8.702    
        8.604       8.501       8.394       8.283       8.169       8.051       7.930       7.806       7.680       7.552    
        7.422       7.292       7.161       7.031       6.901       6.772       6.645       6.519       6.396       6.275    
        6.157       6.040       5.925       5.810       5.696       5.582       5.468       5.353       5.237       5.120    
        5.000    
   6    10.00       9.947       9.894       9.840       9.785       9.729       9.673       9.614       9.555       9.494    
        9.430       9.364       9.295       9.222       9.147       9.068       8.985       8.898       8.807       8.712    
        8.613       8.510       8.402       8.291       8.176       8.057       7.934       7.809       7.682       7.552    
        7.421       7.288       7.156       7.024       6.892       6.762       6.633       6.506       6.382       6.260    
        6.140       6.024       5.910       5.796       5.684       5.572       5.460       5.347       5.233       5.118    
        5.000    
   7    10.00       9.948       9.896       9.843       9.789       9.734       9.679       9.622       9.563       9.503    
        9.440       9.374       9.305       9.234       9.158       9.080       8.997       8.910       8.820       8.724    
        8.625       8.521       8.413       8.301       8.184       8.064       7.940       7.813       7.684       7.552    
        7.419       7.285       7.150       7.016       6.882       6.750       6.619       6.491       6.365       6.242    
        6.122       6.005       5.891       5.780       5.669       5.559       5.449       5.339       5.228       5.115    
        5.000    
   8    10.00       9.949       9.898       9.846       9.793       9.740       9.685       9.630       9.572       9.513    
        9.450       9.385       9.317       9.246       9.171       9.093       9.011       8.924       8.834       8.738    
        8.639       8.534       8.425       8.312       8.194       8.073       7.947       7.818       7.687       7.553    
        7.417       7.280       7.143       7.006       6.871       6.736       6.604       6.474       6.347       6.223    
        6.102       5.985       5.871       5.760       5.652       5.545       5.437       5.330       5.221       5.112    
        5.000    
   9    10.00       9.950       9.900       9.850       9.798       9.746       9.693       9.639       9.582       9.523    
        9.462       9.397       9.330       9.260       9.186       9.108       9.026       8.940       8.850       8.754    
        8.654       8.550       8.440       8.325       8.206       8.083       7.955       7.824       7.690       7.553    
        7.415       7.275       7.135       6.996       6.858       6.721       6.587       6.455       6.327       6.202    
        6.081       5.963       5.849       5.739       5.632       5.528       5.424       5.319       5.214       5.108    
        5.000    
  10    10.00       9.952       9.903       9.854       9.804       9.753       9.702       9.648       9.592       9.534    
        9.474       9.410       9.344       9.275       9.201       9.124       9.043       8.958       8.868       8.773    
        8.672       8.567       8.457       8.341       8.220       8.095       7.965       7.831       7.694       7.554    
        7.413       7.270       7.127       6.984       6.843       6.704       6.568       6.434       6.305       6.179    
        6.058       5.940       5.826       5.717       5.611       5.508       5.408       5.307       5.206       5.104    
        5.000    
  11    10.00       9.953       9.906       9.858       9.810       9.761       9.710       9.658       9.603       9.546    
        9.487       9.424       9.359       9.291       9.218       9.142       9.062       8.977       8.888       8.793    
        8.693       8.587       8.476       8.359       8.236       8.109       7.976       7.840       7.699       7.556    
        7.410       7.264       7.117       6.971       6.827       6.685       6.546       6.411       6.280       6.154    
        6.032       5.915       5.802       5.693       5.589       5.488       5.390       5.294       5.197       5.099    
        5.000    
  12    10.00       9.955       9.909       9.863       9.816       9.768       9.719       9.667       9.614       9.558    
        9.500       9.439       9.375       9.308       9.237       9.162       9.083       8.999       8.910       8.816    
        8.715       8.609       8.497       8.379       8.254       8.125       7.989       7.849       7.705       7.558    
        7.408       7.257       7.106       6.956       6.808       6.663       6.522       6.385       6.253       6.126    
        6.005       5.888       5.776       5.669       5.566       5.467       5.372       5.279       5.187       5.094    
        5.000    
  13    10.00       9.956       9.912       9.868       9.823       9.776       9.728       9.677       9.625       9.571    
        9.514       9.454       9.392       9.326       9.256       9.183       9.105       9.022       8.934       8.841    
        8.741       8.635       8.522       8.402       8.276       8.143       8.005       7.861       7.712       7.560    
        7.405       7.249       7.093       6.939       6.787       6.639       6.495       6.356       6.223       6.096    
        5.975       5.859       5.748       5.643       5.542       5.446       5.353       5.264       5.177       5.089    
        5.000    
  14    10.00       9.958       9.916       9.873       9.829       9.783       9.736       9.687       9.636       9.583    
        9.528       9.470       9.409       9.345       9.277       9.205       9.129       9.048       8.961       8.868    
        8.769       8.663       8.549       8.428       8.300       8.164       8.022       7.874       7.720       7.563    
        7.402       7.240       7.079       6.919       6.763       6.611       6.465       6.324       6.190       6.063    
        5.942       5.828       5.719       5.616       5.518       5.424       5.335       5.249       5.166       5.084    
        5.000    
  15    10.00       9.960       9.919       9.877       9.835       9.790       9.745       9.697       9.648       9.596    
        9.542       9.486       9.427       9.364       9.298       9.228       9.154       9.075       8.990       8.899    
        8.800       8.694       8.580       8.458       8.328       8.189       8.043       7.890       7.730       7.566    
        7.399       7.230       7.062       6.897       6.735       6.579       6.430       6.288       6.153       6.026    
        5.907       5.794       5.688       5.588       5.492       5.402       5.316       5.234       5.155       5.078    
        5.000    
  16    10.00       9.961       9.922       9.882       9.840       9.797       9.753       9.707       9.659       9.609    
        9.556       9.502       9.444       9.384       9.320       9.253       9.181       9.104       9.021       8.931    
        8.835       8.730       8.616       8.492       8.360       8.218       8.067       7.908       7.742       7.570    
        7.395       7.218       7.043       6.870       6.703       6.543       6.390       6.247       6.112       5.986    
        5.869       5.759       5.655       5.558       5.467       5.380       5.297       5.219       5.144       5.072    
        5.000    
  17    10.00       9.963       9.925       9.886       9.846       9.804       9.761       9.716       9.669       9.621    
        9.571       9.518       9.462       9.404       9.343       9.278       9.208       9.134       9.054       8.967    
        8.873       8.769       8.656       8.532       8.397       8.251       8.096       7.930       7.756       7.575    
        7.391       7.205       7.020       6.839       6.666       6.500       6.345       6.201       6.067       5.943    
        5.828       5.721       5.621       5.528       5.441       5.358       5.279       5.205       5.134       5.066    
        5.000    
  18    10.00       9.964       9.928       9.890       9.851       9.810       9.768       9.725       9.680       9.633    
        9.584       9.533       9.480       9.424       9.365       9.303       9.237       9.166       9.089       9.005    
        8.914       8.813       8.701       8.577       8.440       8.291       8.130       7.957       7.773       7.582    
        7.386       7.188       6.993       6.803       6.621       6.451       6.294       6.149       6.016       5.895    
        5.784       5.682       5.587       5.498       5.415       5.336       5.262       5.192       5.125       5.061    
        5.000    
  19    10.00       9.966       9.930       9.893       9.855       9.816       9.775       9.733       9.690       9.644    
        9.597       9.548       9.497       9.444       9.387       9.328       9.265       9.198       9.125       9.046    
        8.958       8.861       8.752       8.628       8.490       8.338       8.172       7.990       7.796       7.591    
        7.381       7.169       6.960       6.759       6.569       6.393       6.234       6.090       5.961       5.844    
        5.738       5.641       5.551       5.468       5.389       5.315       5.245       5.179       5.116       5.057    
        5.000    
  20    10.00       9.967       9.932       9.896       9.860       9.821       9.782       9.741       9.698       9.655    
        9.609       9.562       9.513       9.462       9.409       9.352       9.293       9.230       9.162       9.088    
        9.006       8.914       8.809       8.689       8.551       8.396       8.225       8.034       7.826       7.605    
        7.376       7.146       6.920       6.705       6.506       6.325       6.165       6.025       5.901       5.791    
        5.691       5.600       5.516       5.438       5.365       5.295       5.230       5.167       5.108       5.053    
        5.000    
  21    10.00       9.968       9.934       9.899       9.863       9.826       9.787       9.747       9.706       9.664    
        9.620       9.575       9.528       9.479       9.428       9.375       9.319       9.261       9.198       9.130    
        9.056       8.972       8.874       8.760       8.624       8.471       8.300       8.103       7.881       7.635    
        7.376       7.117       6.872       6.640       6.429       6.245       6.087       5.952       5.837       5.735    
        5.644       5.560       5.483       5.410       5.342       5.277       5.215       5.157       5.102       5.049    
        5.000    
  22    10.00       9.968       9.936       9.901       9.866       9.830       9.792       9.753       9.713       9.672    
        9.629       9.585       9.540       9.494       9.445       9.395       9.343       9.289       9.232       9.171    
        9.105       9.032       8.946       8.843       8.719       8.585       8.449       8.279       8.059       7.796    
        7.501       7.183       6.851       6.558       6.338       6.152       5.999       5.875       5.771       5.681    
        5.599       5.523       5.452       5.385       5.322       5.261       5.203       5.148       5.096       5.046    
        5.000    
  23    10.00       9.969       9.937       9.903       9.869       9.833       9.796       9.758       9.719       9.678    
        9.637       9.594       9.551       9.506       9.460       9.412       9.364       9.314       9.262       9.208    
        9.152       9.091       9.022       8.939       8.858       8.834       8.769       8.595       8.345       8.047    
        7.721       7.377       7.020       6.656       6.295       6.057       5.905       5.796       5.708       5.630    
        5.559       5.491       5.426       5.364       5.305       5.248       5.193       5.141       5.091       5.044    
        5.000    
  24    10.00       9.969       9.938       9.904       9.870       9.835       9.799       9.761       9.723       9.683    
        9.642       9.601       9.558       9.515       9.470       9.425       9.379       9.333       9.286       9.238    
        9.190       9.142       9.092       9.031       9.132       9.225       9.132       8.900       8.595       8.254    
        7.896       7.527       7.152       6.773       6.391       6.017       5.817       5.725       5.654       5.589    
        5.526       5.466       5.406       5.348       5.292       5.238       5.185       5.135       5.088       5.042    
        5.000    
  25    10.00       9.970       9.938       9.905       9.871       9.836       9.800       9.763       9.725       9.686    
        9.646       9.605       9.563       9.520       9.477       9.433       9.389       9.345       9.301       9.258    
        9.216       9.178       9.145       9.134       9.455       9.617       9.455       9.132       8.769       8.391    
        8.008       7.622       7.234       6.845       6.455       6.065       5.756       5.673       5.617       5.562    
        5.506       5.449       5.393       5.338       5.284       5.232       5.181       5.132       5.085       5.041    
        5.000    
  26    10.00       9.970       9.938       9.906       9.872       9.837       9.801       9.764       9.726       9.687    
        9.647       9.606       9.565       9.522       9.479       9.436       9.392       9.349       9.306       9.264    
        9.225       9.191       9.162       9.225       9.617       9.990       9.617       9.225       8.832       8.440    
        8.047       7.655       7.262       6.870       6.477       6.085       5.731       5.653       5.603       5.552    
        5.498       5.444       5.389       5.335       5.282       5.230       5.179       5.131       5.085       5.041    
        5.000    
  27    10.00       9.970       9.938       9.905       9.871       9.836       9.800       9.763       9.725       9.686    
        9.646       9.605       9.563       9.520       9.477       9.433       9.389       9.345       9.301       9.258    
        9.216       9.178       9.145       9.134       9.455       9.617       9.455       9.132       8.769       8.391    
        8.008       7.622       7.234       6.845       6.455       6.065       5.756       5.673       5.617       5.562    
        5.506       5.449       5.393       5.338       5.284       5.232       5.181       5.132       5.085       5.041    
        5.000    
  28    10.00       9.969       9.938       9.904       9.870       9.835       9.799       9.761       9.723       9.683    
        9.642       9.601       9.558       9.515       9.470       9.425       9.379       9.333       9.286       9.238    