# MODFLOW-USG Layer Property Flow (LPF) Package
 50 -1.000000e+030 0 0     
 1 1 1 1 1 1 1 1 1 1
 0 0 0 0 0 0 0 0 0 0
 1.000000e+000
 1.000000e+000
 1.000000e+000
 1.000000e+000
 1.000000e+000
 1.000000e+000
 1.000000e+000
 1.000000e+000
 1.000000e+000
 1.000000e+000
 0 0 0 0 0 0 0 0 0 0
 0 0 0 0 0 0 0 0 0 0
INTERNAL  1.000000e+000  (FREE)  -1  Kx Layer 1
 1.000000e-002 1.000000e-002 1.000000e-002 1.000000e-002 1.000000e-002 1.000000e-002 1.000000e-002 1.000000e-002 1.000000e-002 1.000000e-002
 1.000000e-002 1.000000e-002 1.000000e-002 1.000000e-002 1.000000e-002 1.000000e-002 1.000000e-002 1.000000e-002 1.000000e-002 1.000000e-002
 1.000000e-002 1.000000e-002 1.000000e-002 1.000000e-002 1.000000e-002 1.000000e-002 1.000000e-002 1.000000e-002 1.000000e-002 1.000000e-002
 1.000000e-002 1.000000e-002 1.000000e-002 1.000000e-002 1.000000e-002 1.000000e-002 1.000000e-002 1.000000e-002 1.000000e-002 1.000000e-002
 1.000000e-002 1.000000e-002 1.000000e-002 1.000000e-002 1.000000e-002 1.000000e-002 1.000000e-002 1.000000e-002 1.000000e-002 1.000000e-002
 1.000000e-002 1.000000e-002 1.000000e-002 1.000000e-002 1.000000e-002 1.000000e-002 1.000000e-002 1.000000e-002 1.000000e-002 1.000000e-002
 1.000000e-002 1.000000e-002 1.000000e-002 1.000000e-002 1.000000e-002 1.000000e-002 1.000000e-002 1.000000e-002 1.000000e-002 1.000000e-002
 1.000000e-002 1.000000e-002 1.000000e-002 1.000000e-002 1.000000e-002 1.000000e-002 1.000000e-002 1.000000e-002 1.000000e-002 1.000000e-002
 1.000000e-002 1.000000e-002 1.000000e-002 1.000000e-002 1.000000e-002 1.000000e-002 1.000000e-002 1.000000e-002 1.000000e-002 1.000000e-002
 1.000000e-002 1.000000e-002 1.000000e-002 1.000000e-002 1.000000e-002 1.000000e-002 1.000000e-002 1.000000e-002 1.000000e-002 1.000000e-002
 1.000000e-002 1.000000e-002 1.000000e-002 1.000000e-002 1.000000e-002 1.000000e-002 1.000000e-002 1.000000e-002 1.000000e-002 1.000000e-002
 1.000000e-002 1.000000e-002 1.000000e-002 1.000000e-002 1.000000e-002 1.000000e-002 1.000000e-002 1.000000e-002 1.000000e-002 1.000000e-002
 1.000000e-002 1.000000e-002 1.000000e-002 1.000000e-002 1.000000e-002 1.000000e-002 1.000000e-002 1.000000e-002 1.000000e-002 1.000000e-002
 1.000000e-002 1.000000e-002 1.000000e-002 1.000000e-002 1.000000e-002 1.000000e-002 1.000000e-002 1.000000e-002 1.000000e-002 1.000000e-002
 1.000000e-002 1.000000e-002 1.000000e-002 1.000000e-002 1.000000e-002 1.000000e-002 1.000000e-002 1.000000e-002 1.000000e-002 1.000000e-002
 1.000000e-002 1.000000e-002 1.000000e-002 1.000000e-002 1.000000e-002 1.000000e-002 1.000000e-002 1.000000e-002 1.000000e-002 1.000000e-002
 1.000000e-002 1.000000e-002 1.000000e-002 1.000000e-002 1.000000e-002 1.000000e-002 1.000000e-002 1.000000e-002 1.000000e-002 1.000000e-002
 1.000000e-002 1.000000e-002 1.000000e-002 1.000000e-002 1.000000e-002 1.000000e-002 1.000000e-002 1.000000e-002 1.000000e-002 1.000000e-002
 1.000000e-002 1.000000e-002 1.000000e-002 1.000000e-002 1.000000e-002 1.000000e-002 1.000000e-002 1.000000e-002 1.000000e-002 1.000000e-002
 1.000000e-002 1.000000e-002 1.000000e-002 1.000000e-002 1.000000e-002 1.000000e-002 1.000000e-002 1.000000e-002 1.000000e-002 1.000000e-002
 1.000000e-002 1.000000e-002 1.000000e-002 1.000000e-002 1.000000e-002 1.000000e-002 1.000000e-002 1.000000e-002 1.000000e-002 1.000000e-002
 1.000000e-002 1.000000e-002 1.000000e-002 1.000000e-002 1.000000e-002 1.000000e-002 1.000000e-002 1.000000e-002 1.000000e-002 1.000000e-002
 1.000000e-002 1.000000e-002 1.000000e-002 1.000000e-002 1.000000e-002 1.000000e-002 1.000000e-002 1.000000e-002 1.000000e-002 1.000000e-002
 1.000000e-002 1.000000e-002 1.000000e-002 1.000000e-002 1.000000e-002 1.000000e-002 1.000000e-002 1.000000e-002 1.000000e-002 1.000000e-002
 1.000000e-002 1.000000e-002 1.000000e-002 1.000000e-002 1.000000e-002 1.000000e-002 1.000000e-002 1.000000e-002 1.000000e-002 1.000000e-002
 1.000000e-002 1.000000e-002 1.000000e-002 1.000000e-002 1.000000e-002 1.000000e-002 1.000000e-002 1.000000e-002 1.000000e-002 1.000000e-002
 1.000000e-002 1.000000e-002 1.000000e-002 1.000000e-002 1.000000e-002 1.000000e-002 1.000000e-002 1.000000e-002 1.000000e-002 1.000000e-002
 1.000000e-002 1.000000e-002 1.000000e-002 1.000000e-002 1.000000e-002 1.000000e-002 1.000000e-002 1.000000e-002 1.000000e-002 1.000000e-002
 1.000000e-002 1.000000e-002 1.000000e-002 1.000000e-002 1.000000e-002 1.000000e-002 1.000000e-002 1.000000e-002 1.000000e-002 1.000000e-002
 1.000000e-002 1.000000e-002 1.000000e-002 1.000000e-002 1.000000e-002 1.000000e-002 1.000000e-002 1.000000e-002 1.000000e-002 1.000000e-002
 1.000000e-002 1.000000e-002 1.000000e-002 1.000000e-002 1.000000e-002 1.000000e-002 1.000000e-002 1.000000e-002 1.000000e-002 1.000000e-002
 1.000000e-002 1.000000e-002 1.000000e-002 1.000000e-002 1.000000e-002 1.000000e-002 1.000000e-002 1.000000e-002 1.000000e-002 1.000000e-002
 1.000000e-002 1.000000e-002 1.000000e-002 1.000000e-002 1.000000e-002 1.000000e-002 1.000000e-002 1.000000e-002 1.000000e-002 1.000000e-002
 1.000000e-002 1.000000e-002 1.000000e-002 1.000000e-002 1.000000e-002 1.000000e-002 1.000000e-002 1.000000e-002 1.000000e-002 1.000000e-002
 1.000000e-002 1.000000e-002 1.000000e-002 1.000000e-002 1.000000e-002 1.000000e-002 1.000000e-002 1.000000e-002 1.000000e-002 1.000000e-002
 1.000000e-002 1.000000e-002 1.000000e-002 1.000000e-002 1.000000e-002 1.000000e-002 1.000000e-002 1.000000e-002 1.000000e-002 1.000000e-002
 1.000000e-002 1.000000e-002 1.000000e-002 1.000000e-002 1.000000e-002 1.000000e-002 1.000000e-002 1.000000e-002 1.000000e-002 1.000000e-002
 1.000000e-002 1.000000e-002 1.000000e-002 1.000000e-002 1.000000e-002 1.000000e-002 1.000000e-002 1.000000e-002 1.000000e-002 1.000000e-002
 1.000000e-002 1.000000e-002 1.000000e-002 1.000000e-002 1.000000e-002 1.000000e-002 1.000000e-002 1.000000e-002 1.000000e-002 1.000000e-002
 1.000000e-002 1.000000e-002 1.000000e-002 1.000000e-002 1.000000e-002 1.000000e-002 1.000000e-002 1.000000e-002 1.000000e-002 1.000000e-002
 1.000000e-002 1.000000e-002 1.000000e-002 1.000000e-002 1.000000e-002 1.000000e-002 1.000000e-002 1.000000e-002 1.000000e-002 1.000000e-002
 1.000000e-002 1.000000e-002 1.000000e-002 1.000000e-002 1.000000e-002 1.000000e-002 1.000000e-002 1.000000e-002 1.000000e-002 1.000000e-002
 1.000000e-002 1.000000e-002 1.000000e-002 1.000000e-002 1.000000e-002 1.000000e-002 1.000000e-002 1.000000e-002 1.000000e-002 1.000000e-002
 1.000000e-002 1.000000e-002 1.000000e-002 1.000000e-002 1.000000e-002 1.000000e-002 1.000000e-002 1.000000e-002 1.000000e-002 1.000000e-002
 1.000000e-002 1.000000e-002 1.000000e-002 1.000000e-002 1.000000e-002 1.000000e-002 1.000000e-002 1.000000e-002 1.000000e-002 1.000000e-002
 1.000000e-002 1.000000e-002 1.000000e-002 1.000000e-002 1.000000e-002 1.000000e-002 1.000000e-002 1.000000e-002 1.000000e-002 1.000000e-002
 1.000000e-002 1.000000e-002 1.000000e-002 1.000000e-002 1.000000e-002 1.000000e-002 1.000000e-002 1.000000e-002 1.000000e-002 1.000000e-002
 1.000000e-002 1.000000e-002 1.000000e-002 1.000000e-002 1.000000e-002 1.000000e-002 1.000000e-002 1.000000e-002 1.000000e-002 1.000000e-002
 1.000000e-002 1.000000e-002 1.000000e-002 1.000000e-002 1.000000e-002 1.000000e-002 1.000000e-002 1.000000e-002 1.000000e-002 1.000000e-002
 1.000000e-002 1.000000e-002 1.000000e-002 1.000000e-002 1.000000e-002 1.000000e-002 1.000000e-002 1.000000e-002 1.000000e-002 1.000000e-002
 1.000000e-002 1.000000e-002 1.000000e-002 1.000000e-002 1.000000e-002 1.000000e-002 1.000000e-002 1.000000e-002 1.000000e-002 1.000000e-002
 1.000000e-002 1.000000e-002 1.000000e-002 1.000000e-002 1.000000e-002 1.000000e-002 1.000000e-002 1.000000e-002 1.000000e-002 1.000000e-002
 1.000000e-002 1.000000e-002 1.000000e-002 1.000000e-002 1.000000e-002 1.000000e-002 1.000000e-002 1.000000e-002 1.000000e-002 1.000000e-002
 1.000000e-002 1.000000e-002 1.000000e-002 1.000000e-002 1.000000e-002 1.000000e-002 1.000000e-002 1.000000e-002 1.000000e-002 1.000000e-002
 1.000000e-002 1.000000e-002 1.000000e-002 1.000000e-002 1.000000e-002 1.000000e-002 1.000000e-002 1.000000e-002 1.000000e-002 1.000000e-002
 1.000000e-002 1.000000e-002 1.000000e-002 1.000000e-002 1.000000e-002 1.000000e-002 1.000000e-002 1.000000e-002 1.000000e-002 1.000000e-002
 1.000000e-002 1.000000e-002 1.000000e-002 1.000000e-002 1.000000e-002 1.000000e-002 1.000000e-002 1.000000e-002 1.000000e-002 1.000000e-002
 1.000000e-002 1.000000e-002 1.000000e-002 1.000000e-002 1.000000e-002 1.000000e-002 1.000000e-002 1.000000e-002 1.000000e-002 1.000000e-002
 1.000000e-002 1.000000e-002 1.000000e-002 1.000000e-002 1.000000e-002 1.000000e-002 1.000000e-002 1.000000e-002 1.000000e-002 1.000000e-002
 1.000000e-002 1.000000e-002 1.000000e-002 1.000000e-002 1.000000e-002 1.000000e-002 1.000000e-002 1.000000e-002 1.000000e-002 1.000000e-002
 1.000000e-002 1.000000e-002 1.000000e-002 1.000000e-002 1.000000e-002 1.000000e-002 1.000000e-002 1.000000e-002 1.000000e-002 1.000000e-002
 1.000000e-002 1.000000e-002 1.000000e-002 1.000000e-002 1.000000e-002 1.000000e-002 1.000000e-002 1.000000e-002 1.000000e-002 1.000000e-002
 1.000000e-002 1.000000e-002 1.000000e-002 1.000000e-002 1.000000e-002 1.000000e-002 1.000000e-002 1.000000e-002 1.000000e-002 1.000000e-002
 1.000000e-002 1.000000e-002 1.000000e-002 1.000000e-002 1.000000e-002 1.000000e-002 1.000000e-002 1.000000e-002 1.000000e-002 1.000000e-002
 1.000000e-002 1.000000e-002 1.000000e-002 1.000000e-002 1.000000e-002 1.000000e-002 1.000000e-002 1.000000e-002 1.000000e-002 1.000000e-002
 1.000000e-002 1.000000e-002 1.000000e-002 1.000000e-002 1.000000e-002 1.000000e-002 1.000000e-002 1.000000e-002 1.000000e-002 1.000000e-002
 1.000000e-002 1.000000e-002 1.000000e-002 1.000000e-002 1.000000e-002 1.000000e-002 1.000000e-002 1.000000e-002 1.000000e-002 1.000000e-002
 1.000000e-002 1.000000e-002 1.000000e-002 1.000000e-002 1.000000e-002 1.000000e-002 1.000000e-002 1.000000e-002 1.000000e-002 1.000000e-002
 1.000000e-002 1.000000e-002 1.000000e-002 1.000000e-002 1.000000e-002 1.000000e-002 1.000000e-002 1.000000e-002 1.000000e-002 1.000000e-002
 1.000000e-002 1.000000e-002 1.000000e-002 1.000000e-002 1.000000e-002 1.000000e-002 1.000000e-002 1.000000e-002 1.000000e-002 1.000000e-002
 1.000000e-002 1.000000e-002 1.000000e-002 1.000000e-002 1.000000e-002 1.000000e-002 1.000000e-002 1.000000e-002 1.000000e-002 1.000000e-002
 1.000000e-002 1.000000e-002 1.000000e-002 1.000000e-002 1.000000e-002 1.000000e-002 1.000000e-002 1.000000e-002 1.000000e-002 1.000000e-002
 1.000000e-002 1.000000e-002 1.000000e-002 1.000000e-002 1.000000e-002 1.000000e-002 1.000000e-002 1.000000e-002 1.000000e-002 1.000000e-002
 1.000000e-002 1.000000e-002 1.000000e-002 1.000000e-002 1.000000e-002 1.000000e-002 1.000000e-002 1.000000e-002 1.000000e-002 1.000000e-002
 1.000000e-002 1.000000e-002 1.000000e-002 1.000000e-002 1.000000e-002 1.000000e-002 1.000000e-002 1.000000e-002 1.000000e-002 1.000000e-002
 1.000000e-002 1.000000e-002 1.000000e-002 1.000000e-002 1.000000e-002 1.000000e-002 1.000000e-002 1.000000e-002 1.000000e-002 1.000000e-002
 1.000000e-002 1.000000e-002 1.000000e-002 1.000000e-002 1.000000e-002 1.000000e-002 1.000000e-002 1.000000e-002 1.000000e-002 1.000000e-002
 1.000000e-002 1.000000e-002 1.000000e-002 1.000000e-002 1.000000e-002 1.000000e-002 1.000000e-002 1.000000e-002 1.000000e-002 1.000000e-002
 1.000000e-002 1.000000e-002 1.000000e-002 1.000000e-002 1.000000e-002 1.000000e-002 1.000000e-002 1.000000e-002 1.000000e-002 1.000000e-002
 1.000000e-002 1.000000e-002 1.000000e-002 1.000000e-002 1.000000e-002 1.000000e-002 1.000000e-002 1.000000e-002 1.000000e-002 1.000000e-002
 1.000000e-002 1.000000e-002 1.000000e-002 1.000000e-002 1.000000e-002 1.000000e-002 1.000000e-002 1.000000e-002 1.000000e-002 1.000000e-002
 1.000000e-002 1.000000e-002 1.000000e-002 1.000000e-002 1.000000e-002 1.000000e-002 1.000000e-002 1.000000e-002 1.000000e-002 1.000000e-002
 1.000000e-002 1.000000e-002 1.000000e-002 1.000000e-002 1.000000e-002 1.000000e-002 1.000000e-002 1.000000e-002 1.000000e-002 1.000000e-002
 1.000000e-002 1.000000e-002 1.000000e-002 1.000000e-002 1.000000e-002 1.000000e-002 1.000000e-002 1.000000e-002 1.000000e-002 1.000000e-002
 1.000000e-002 1.000000e-002 1.000000e-002 1.000000e-002 1.000000e-002 1.000000e-002 1.000000e-002 1.000000e-002 1.000000e-002 1.000000e-002
 1.000000e-002 1.000000e-002 1.000000e-002 1.000000e-002 1.000000e-002 1.000000e-002 1.000000e-002 1.000000e-002 1.000000e-002 1.000000e-002
 1.000000e-002 1.000000e-002 1.000000e-002 1.000000e-002 1.000000e-002 1.000000e-002 1.000000e-002 1.000000e-002 1.000000e-002 1.000000e-002
 1.000000e-002 1.000000e-002 1.000000e-002 1.000000e-002 1.000000e-002 1.000000e-002 1.000000e-002 1.000000e-002 1.000000e-002 1.000000e-002
 1.000000e-002 1.000000e-002 1.000000e-002 1.000000e-002 1.000000e-002 1.000000e-002 1.000000e-002 1.000000e-002 1.000000e-002 1.000000e-002
 1.000000e-002 1.000000e-002 1.000000e-002 1.000000e-002 1.000000e-002 1.000000e-002 1.000000e-002 1.000000e-002 1.000000e-002 1.000000e-002
 1.000000e-002 1.000000e-002 1.000000e-002 1.000000e-002 1.000000e-002 1.000000e-002 1.000000e-002 1.000000e-002 1.000000e-002 1.000000e-002
 1.000000e-002 1.000000e-002 1.000000e-002 1.000000e-002 1.000000e-002 1.000000e-002 1.000000e-002 1.000000e-002 1.000000e-002 1.000000e-002
 1.000000e-002 1.000000e-002 1.000000e-002 1.000000e-002 1.000000e-002 1.000000e-002 1.000000e-002 1.000000e-002 1.000000e-002 1.000000e-002
 1.000000e-002 1.000000e-002 1.000000e-002 1.000000e-002 1.000000e-002 1.000000e-002 1.000000e-002 1.000000e-002 1.000000e-002 1.000000e-002
 1.000000e-002 1.000000e-002 1.000000e-002 1.000000e-002 1.000000e-002 1.000000e-002 1.000000e-002 1.000000e-002 1.000000e-002 1.000000e-002
 1.000000e-002 1.000000e-002 1.000000e-002 1.000000e-002 1.000000e-002 1.000000e-002 1.000000e-002 1.000000e-002 1.000000e-002 1.000000e-002
 1.000000e-002 1.000000e-002 1.000000e-002 1.000000e-002 1.000000e-002 1.000000e-002
INTERNAL  1.000000e+000  (FREE)  -1  Kz Layer 1
 1.000000e-003 1.000000e-003 1.000000e-003 1.000000e-003 1.000000e-003 1.000000e-003 1.000000e-003 1.000000e-003 1.000000e-003 1.000000e-003
 1.000000e-003 1.000000e-003 1.000000e-003 1.000000e-003 1.000000e-003 1.000000e-003 1.000000e-003 1.000000e-003 1.000000e-003 1.000000e-003
 1.000000e-003 1.000000e-003 1.000000e-003 1.000000e-003 1.000000e-003 1.000000e-003 1.000000e-003 1.000000e-003 1.000000e-003 1.000000e-003
 1.000000e-003 1.000000e-003 1.000000e-003 1.000000e-003 1.000000e-003 1.000000e-003 1.000000e-003 1.000000e-003 1.000000e-003 1.000000e-003
 1.000000e-003 1.000000e-003 1.000000e-003 1.000000e-003 1.000000e-003 1.000000e-003 1.000000e-003 1.000000e-003 1.000000e-003 1.000000e-003
 1.000000e-003 1.000000e-003 1.000000e-003 1.000000e-003 1.000000e-003 1.000000e-003 1.000000e-003 1.000000e-003 1.000000e-003 1.000000e-003
 1.000000e-003 1.000000e-003 1.000000e-003 1.000000e-003 1.000000e-003 1.000000e-003 1.000000e-003 1.000000e-003 1.000000e-003 1.000000e-003
 1.000000e-003 1.000000e-003 1.000000e-003 1.000000e-003 1.000000e-003 1.000000e-003 1.000000e-003 1.000000e-003 1.000000e-003 1.000000e-003
 1.000000e-003 1.000000e-003 1.000000e-003 1.000000e-003 1.000000e-003 1.000000e-003 1.000000e-003 1.000000e-003 1.000000e-003 1.000000e-003
 1.000000e-003 1.000000e-003 1.000000e-003 1.000000e-003 1.000000e-003 1.000000e-003 1.000000e-003 1.000000e-003 1.000000e-003 1.000000e-003
 1.000000e-003 1.000000e-003 1.000000e-003 1.000000e-003 1.000000e-003 1.000000e-003 1.000000e-003 1.000000e-003 1.000000e-003 1.000000e-003
 1.000000e-003 1.000000e-003 1.000000e-003 1.000000e-003 1.000000e-003 1.000000e-003 1.000000e-003 1.000000e-003 1.000000e-003 1.000000e-003
 1.000000e-003 1.000000e-003 1.000000e-003 1.000000e-003 1.000000e-003 1.000000e-003 1.000000e-003 1.000000e-003 1.000000e-003 1.000000e-003
 1.000000e-003 1.000000e-003 1.000000e-003 1.000000e-003 1.000000e-003 1.000000e-003 1.000000e-003 1.000000e-003 1.000000e-003 1.000000e-003
 1.000000e-003 1.000000e-003 1.000000e-003 1.000000e-003 1.000000e-003 1.000000e-003 1.000000e-003 1.000000e-003 1.000000e-003 1.000000e-003
 1.000000e-003 1.000000e-003 1.000000e-003 1.000000e-003 1.000000e-003 1.000000e-003 1.000000e-003 1.000000e-003 1.000000e-003 1.000000e-003
 1.000000e-003 1.000000e-003 1.000000e-003 1.000000e-003 1.000000e-003 1.000000e-003 1.000000e-003 1.000000e-003 1.000000e-003 1.000000e-003
 1.000000e-003 1.000000e-003 1.000000e-003 1.000000e-003 1.000000e-003 1.000000e-003 1.000000e-003 1.000000e-003 1.000000e-003 1.000000e-003
 1.000000e-003 1.000000e-003 1.000000e-003 1.000000e-003 1.000000e-003 1.000000e-003 1.000000e-003 1.000000e-003 1.000000e-003 1.000000e-003
 1.000000e-003 1.000000e-003 1.000000e-003 1.000000e-003 1.000000e-003 1.000000e-003 1.000000e-003 1.000000e-003 1.000000e-003 1.000000e-003
 1.000000e-003 1.000000e-003 1.000000e-003 1.000000e-003 1.000000e-003 1.000000e-003 1.000000e-003 1.000000e-003 1.000000e-003 1.000000e-003
 1.000000e-003 1.000000e-003 1.000000e-003 1.000000e-003 1.000000e-003 1.000000e-003 1.000000e-003 1.000000e-003 1.000000e-003 1.000000e-003
 1.000000e-003 1.000000e-003 1.000000e-003 1.000000e-003 1.000000e-003 1.000000e-003 1.000000e-003 1.000000e-003 1.000000e-003 1.000000e-003
 1.000000e-003 1.000000e-003 1.000000e-003 1.000000e-003 1.000000e-003 1.000000e-003 1.000000e-003 1.000000e-003 1.000000e-003 1.000000e-003
 1.000000e-003 1.000000e-003 1.000000e-003 1.000000e-003 1.000000e-003 1.000000e-003 1.000000e-003 1.000000e-003 1.000000e-003 1.000000e-003
 1.000000e-003 1.000000e-003 1.000000e-003 1.000000e-003 1.000000e-003 1.000000e-003 1.000000e-003 1.000000e-003 1.000000e-003 1.000000e-003
 1.000000e-003 1.000000e-003 1.000000e-003 1.000000e-003 1.000000e-003 1.000000e-003 1.000000e-003 1.000000e-003 1.000000e-003 1.000000e-003
 1.000000e-003 1.000000e-003 1.000000e-003 1.000000e-003 1.000000e-003 1.000000e-003 1.000000e-003 1.000000e-003 1.000000e-003 1.000000e-003
 1.000000e-003 1.000000e-003 1.000000e-003 1.000000e-003 1.000000e-003 1.000000e-003 1.000000e-003 1.000000e-003 1.000000e-003 1.000000e-003
 1.000000e-003 1.000000e-003 1.000000e-003 1.000000e-003 1.000000e-003 1.000000e-003 1.000000e-003 1.000000e-003 1.000000e-003 1.000000e-003
 1.000000e-003 1.000000e-003 1.000000e-003 1.000000e-003 1.000000e-003 1.000000e-003 1.000000e-003 1.000000e-003 1.000000e-003 1.000000e-003
 1.000000e-003 1.000000e-003 1.000000e-003 1.000000e-003 1.000000e-003 1.000000e-003 1.000000e-003 1.000000e-003 1.000000e-003 1.000000e-003
 1.000000e-003 1.000000e-003 1.000000e-003 1.000000e-003 1.000000e-003 1.000000e-003 1.000000e-003 1.000000e-003 1.000000e-003 1.000000e-003
 1.000000e-003 1.000000e-003 1.000000e-003 1.000000e-003 1.000000e-003 1.000000e-003 1.000000e-003 1.000000e-003 1.000000e-003 1.000000e-003
 1.000000e-003 1.000000e-003 1.000000e-003 1.000000e-003 1.000000e-003 1.000000e-003 1.000000e-003 1.000000e-003 1.000000e-003 1.000000e-003
 1.000000e-003 1.000000e-003 1.000000e-003 1.000000e-003 1.000000e-003 1.000000e-003 1.000000e-003 1.000000e-003 1.000000e-003 1.000000e-003
 1.000000e-003 1.000000e-003 1.000000e-003 1.000000e-003 1.000000e-003 1.000000e-003 1.000000e-003 1.000000e-003 1.000000e-003 1.000000e-003
 1.000000e-003 1.000000e-003 1.000000e-003 1.000000e-003 1.000000e-003 1.000000e-003 1.000000e-003 1.000000e-003 1.000000e-003 1.000000e-003
 1.000000e-003 1.000000e-003 1.000000e-003 1.000000e-003 1.000000e-003 1.000000e-003 1.000000e-003 1.000000e-003 1.000000e-003 1.000000e-003
 1.000000e-003 1.000000e-003 1.000000e-003 1.000000e-003 1.000000e-003 1.000000e-003 1.000000e-003 1.000000e-003 1.000000e-003 1.000000e-003
 1.000000e-003 1.000000e-003 1.000000e-003 1.000000e-003 1.000000e-003 1.000000e-003 1.000000e-003 1.000000e-003 1.000000e-003 1.000000e-003
 1.000000e-003 1.000000e-003 1.000000e-003 1.000000e-003 1.000000e-003 1.000000e-003 1.000000e-003 1.000000e-003 1.000000e-003 1.000000e-003
 1.000000e-003 1.000000e-003 1.000000e-003 1.000000e-003 1.000000e-003 1.000000e-003 1.000000e-003 1.000000e-003 1.000000e-003 1.000000e-003
 1.000000e-003 1.000000e-003 1.000000e-003 1.000000e-003 1.000000e-003 1.000000e-003 1.000000e-003 1.000000e-003 1.000000e-003 1.000000e-003
 1.000000e-003 1.000000e-003 1.000000e-003 1.000000e-003 1.000000e-003 1.000000e-003 1.000000e-003 1.000000e-003 1.000000e-003 1.000000e-003
 1.000000e-003 1.000000e-003 1.000000e-003 1.000000e-003 1.000000e-003 1.000000e-003 1.000000e-003 1.000000e-003 1.000000e-003 1.000000e-003
 1.000000e-003 1.000000e-003 1.000000e-003 1.000000e-003 1.000000e-003 1.000000e-003 1.000000e-003 1.000000e-003 1.000000e-003 1.000000e-003
 1.000000e-003 1.000000e-003 1.000000e-003 1.000000e-003 1.000000e-003 1.000000e-003 1.000000e-003 1.000000e-003 1.000000e-003 1.000000e-003
 1.000000e-003 1.000000e-003 1.000000e-003 1.000000e-003 1.000000e-003 1.000000e-003 1.000000e-003 1.000000e-003 1.000000e-003 1.000000e-003
 1.000000e-003 1.000000e-003 1.000000e-003 1.000000e-003 1.000000e-003 1.000000e-003 1.000000e-003 1.000000e-003 1.000000e-003 1.000000e-003
 1.000000e-003 1.000000e-003 1.000000e-003 1.000000e-003 1.000000e-003 1.000000e-003 1.000000e-003 1.000000e-003 1.000000e-003 1.000000e-003
 1.000000e-003 1.000000e-003 1.000000e-003 1.000000e-003 1.000000e-003 1.000000e-003 1.000000e-003 1.000000e-003 1.000000e-003 1.000000e-003
 1.000000e-003 1.000000e-003 1.000000e-003 1.000000e-003 1.000000e-003 1.000000e-003 1.000000e-003 1.000000e-003 1.000000e-003 1.000000e-003
 1.000000e-003 1.000000e-003 1.000000e-003 1.000000e-003 1.000000e-003 1.000000e-003 1.000000e-003 1.000000e-003 1.000000e-003 1.000000e-003
 1.000000e-003 1.000000e-003 1.000000e-003 1.000000e-003 1.000000e-003 1.000000e-003 1.000000e-003 1.000000e-003 1.000000e-003 1.000000e-003
 1.000000e-003 1.000000e-003 1.000000e-003 1.000000e-003 1.000000e-003 1.000000e-003 1.000000e-003 1.000000e-003 1.000000e-003 1.000000e-003
 1.000000e-003 1.000000e-003 1.000000e-003 1.000000e-003 1.000000e-003 1.000000e-003 1.000000e-003 1.000000e-003 1.000000e-003 1.000000e-003
 1.000000e-003 1.000000e-003 1.000000e-003 1.000000e-003 1.000000e-003 1.000000e-003 1.000000e-003 1.000000e-003 1.000000e-003 1.000000e-003
 1.000000e-003 1.000000e-003 1.000000e-003 1.000000e-003 1.000000e-003 1.000000e-003 1.000000e-003 1.000000e-003 1.000000e-003 1.000000e-003
 1.000000e-003 1.000000e-003 1.000000e-003 1.000000e-003 1.000000e-003 1.000000e-003 1.000000e-003 1.000000e-003 1.000000e-003 1.000000e-003
 1.000000e-003 1.000000e-003 1.000000e-003 1.000000e-003 1.000000e-003 1.000000e-003 1.000000e-003 1.000000e-003 1.000000e-003 1.000000e-003
 1.000000e-003 1.000000e-003 1.000000e-003 1.000000e-003 1.000000e-003 1.000000e-003 1.000000e-003 1.000000e-003 1.000000e-003 1.000000e-003
 1.000000e-003 1.000000e-003 1.000000e-003 1.000000e-003 1.000000e-003 1.000000e-003 1.000000e-003 1.000000e-003 1.000000e-003 1.000000e-003
 1.000000e-003 1.000000e-003 1.000000e-003 1.000000e-003 1.000000e-003 1.000000e-003 1.000000e-003 1.000000e-003 1.000000e-003 1.000000e-003
 1.000000e-003 1.000000e-003 1.000000e-003 1.000000e-003 1.000000e-003 1.000000e-003 1.000000e-003 1.000000e-003 1.000000e-003 1.000000e-003
 1.000000e-003 1.000000e-003 1.000000e-003 1.000000e-003 1.000000e-003 1.000000e-003 1.000000e-003 1.000000e-003 1.000000e-003 1.000000e-003
 1.000000e-003 1.000000e-003 1.000000e-003 1.000000e-003 1.000000e-003 1.000000e-003 1.000000e-003 1.000000e-003 1.000000e-003 1.000000e-003
 1.000000e-003 1.000000e-003 1.000000e-003 1.000000e-003 1.000000e-003 1.000000e-003 1.000000e-003 1.000000e-003 1.000000e-003 1.000000e-003
 1.000000e-003 1.000000e-003 1.000000e-003 1.000000e-003 1.000000e-003 1.000000e-003 1.000000e-003 1.000000e-003 1.000000e-003 1.000000e-003
 1.000000e-003 1.000000e-003 1.000000e-003 1.000000e-003 1.000000e-003 1.000000e-003 1.000000e-003 1.000000e-003 1.000000e-003 1.000000e-003
 1.000000e-003 1.000000e-003 1.000000e-003 1.000000e-003 1.000000e-003 1.000000e-003 1.000000e-003 1.000000e-003 1.000000e-003 1.000000e-003
 1.000000e-003 1.000000e-003 1.000000e-003 1.000000e-003 1.000000e-003 1.000000e-003 1.000000e-003 1.000000e-003 1.000000e-003 1.000000e-003
 1.000000e-003 1.000000e-003 1.000000e-003 1.000000e-003 1.000000e-003 1.000000e-003 1.000000e-003 1.000000e-003 1.000000e-003 1.000000e-003
 1.000000e-003 1.000000e-003 1.000000e-003 1.000000e-003 1.000000e-003 1.000000e-003 1.000000e-003 1.000000e-003 1.000000e-003 1.000000e-003
 1.000000e-003 1.000000e-003 1.000000e-003 1.000000e-003 1.000000e-003 1.000000e-003 1.000000e-003 1.000000e-003 1.000000e-003 1.000000e-003
 1.000000e-003 1.000000e-003 1.000000e-003 1.000000e-003 1.000000e-003 1.000000e-003 1.000000e-003 1.000000e-003 1.000000e-003 1.000000e-003
 1.000000e-003 1.000000e-003 1.000000e-003 1.000000e-003 1.000000e-003 1.000000e-003 1.000000e-003 1.000000e-003 1.000000e-003 1.000000e-003
 1.000000e-003 1.000000e-003 1.000000e-003 1.000000e-003 1.000000e-003 1.000000e-003 1.000000e-003 1.000000e-003 1.000000e-003 1.000000e-003
 1.000000e-003 1.000000e-003 1.000000e-003 1.000000e-003 1.000000e-003 1.000000e-003 1.000000e-003 1.000000e-003 1.000000e-003 1.000000e-003
 1.000000e-003 1.000000e-003 1.000000e-003 1.000000e-003 1.000000e-003 1.000000e-003 1.000000e-003 1.000000e-003 1.000000e-003 1.000000e-003
 1.000000e-003 1.000000e-003 1.000000e-003 1.000000e-003 1.000000e-003 1.000000e-003 1.000000e-003 1.000000e-003 1.000000e-003 1.000000e-003
 1.000000e-003 1.000000e-003 1.000000e-003 1.000000e-003 1.000000e-003 1.000000e-003 1.000000e-003 1.000000e-003 1.000000e-003 1.000000e-003
 1.000000e-003 1.000000e-003 1.000000e-003 1.000000e-003 1.000000e-003 1.000000e-003 1.000000e-003 1.000000e-003 1.000000e-003 1.000000e-003
 1.000000e-003 1.000000e-003 1.000000e-003 1.000000e-003 1.000000e-003 1.000000e-003 1.000000e-003 1.000000e-003 1.000000e-003 1.000000e-003
 1.000000e-003 1.000000e-003 1.000000e-003 1.000000e-003 1.000000e-003 1.000000e-003 1.000000e-003 1.000000e-003 1.000000e-003 1.000000e-003
 1.000000e-003 1.000000e-003 1.000000e-003 1.000000e-003 1.000000e-003 1.000000e-003 1.000000e-003 1.000000e-003 1.000000e-003 1.000000e-003
 1.000000e-003 1.000000e-003 1.000000e-003 1.000000e-003 1.000000e-003 1.000000e-003 1.000000e-003 1.000000e-003 1.000000e-003 1.000000e-003
 1.000000e-003 1.000000e-003 1.000000e-003 1.000000e-003 1.000000e-003 1.000000e-003 1.000000e-003 1.000000e-003 1.000000e-003 1.000000e-003
 1.000000e-003 1.000000e-003 1.000000e-003 1.000000e-003 1.000000e-003 1.000000e-003 1.000000e-003 1.000000e-003 1.000000e-003 1.000000e-003
 1.000000e-003 1.000000e-003 1.000000e-003 1.000000e-003 1.000000e-003 1.000000e-003 1.000000e-003 1.000000e-003 1.000000e-003 1.000000e-003
 1.000000e-003 1.000000e-003 1.000000e-003 1.000000e-003 1.000000e-003 1.000000e-003 1.000000e-003 1.000000e-003 1.000000e-003 1.000000e-003
 1.000000e-003 1.000000e-003 1.000000e-003 1.000000e-003 1.000000e-003 1.000000e-003 1.000000e-003 1.000000e-003 1.000000e-003 1.000000e-003
 1.000000e-003 1.000000e-003 1.000000e-003 1.000000e-003 1.000000e-003 1.000000e-003 1.000000e-003 1.000000e-003 1.000000e-003 1.000000e-003
 1.000000e-003 1.000000e-003 1.000000e-003 1.000000e-003 1.000000e-003 1.000000e-003 1.000000e-003 1.000000e-003 1.000000e-003 1.000000e-003
 1.000000e-003 1.000000e-003 1.000000e-003 1.000000e-003 1.000000e-003 1.000000e-003 1.000000e-003 1.000000e-003 1.000000e-003 1.000000e-003
 1.000000e-003 1.000000e-003 1.000000e-003 1.000000e-003 1.000000e-003 1.000000e-003 1.000000e-003 1.000000e-003 1.000000e-003 1.000000e-003
 1.000000e-003 1.000000e-003 1.000000e-003 1.000000e-003 1.000000e-003 1.000000e-003
INTERNAL  1.000000e+000  (FREE)  -1  Ss Layer 1
 1.000000e-005 1.000000e-005 1.000000e-005 1.000000e-005 1.000000e-005 1.000000e-005 1.000000e-005 1.000000e-005 1.000000e-005 1.000000e-005
 1.000000e-005 1.000000e-005 1.000000e-005 1.000000e-005 1.000000e-005 1.000000e-005 1.000000e-005 1.000000e-005 1.000000e-005 1.000000e-005
 1.000000e-005 1.000000e-005 1.000000e-005 1.000000e-005 1.000000e-005 1.000000e-005 1.000000e-005 1.000000e-005 1.000000e-005 1.000000e-005
 1.000000e-005 1.000000e-005 1.000000e-005 1.000000e-005 1.000000e-005 1.000000e-005 1.000000e-005 1.000000e-005 1.000000e-005 1.000000e-005
 1.000000e-005 1.000000e-005 1.000000e-005 1.000000e-005 1.000000e-005 1.000000e-005 1.000000e-005 1.000000e-005 1.000000e-005 1.000000e-005
 1.000000e-005 1.000000e-005 1.000000e-005 1.000000e-005 1.000000e-005 1.000000e-005 1.000000e-005 1.000000e-005 1.000000e-005 1.000000e-005
 1.000000e-005 1.000000e-005 1.000000e-005 1.000000e-005 1.000000e-005 1.000000e-005 1.000000e-005 1.000000e-005 1.000000e-005 1.000000e-005
 1.000000e-005 1.000000e-005 1.000000e-005 1.000000e-005 1.000000e-005 1.000000e-005 1.000000e-005 1.000000e-005 1.000000e-005 1.000000e-005
 1.000000e-005 1.000000e-005 1.000000e-005 1.000000e-005 1.000000e-005 1.000000e-005 1.000000e-005 1.000000e-005 1.000000e-005 1.000000e-005
 1.000000e-005 1.000000e-005 1.000000e-005 1.000000e-005 1.000000e-005 1.000000e-005 1.000000e-005 1.000000e-005 1.000000e-005 1.000000e-005
 1.000000e-005 1.000000e-005 1.000000e-005 1.000000e-005 1.000000e-005 1.000000e-005 1.000000e-005 1.000000e-005 1.000000e-005 1.000000e-005
 1.000000e-005 1.000000e-005 1.000000e-005 1.000000e-005 1.000000e-005 1.000000e-005 1.000000e-005 1.000000e-005 1.000000e-005 1.000000e-005
 1.000000e-005 1.000000e-005 1.000000e-005 1.000000e-005 1.000000e-005 1.000000e-005 1.000000e-005 1.000000e-005 1.000000e-005 1.000000e-005
 1.000000e-005 1.000000e-005 1.000000e-005 1.000000e-005 1.000000e-005 1.000000e-005 1.000000e-005 1.000000e-005 1.000000e-005 1.000000e-005
 1.000000e-005 1.000000e-005 1.000000e-005 1.000000e-005 1.000000e-005 1.000000e-005 1.000000e-005 1.000000e-005 1.000000e-005 1.000000e-005
 1.000000e-005 1.000000e-005 1.000000e-005 1.000000e-005 1.000000e-005 1.000000e-005 1.000000e-005 1.000000e-005 1.000000e-005 1.000000e-005