# MODFLOW2000 HFB File
  0  0  1516
         2       105        75       104        75 8.640e-08         0
         2       105        76       104        76 8.640e-08         0
         2       105        77       104        77 8.640e-08         0
         2       105        78       104        78 8.640e-08         0
         2       105        79       105        78 8.640e-08         0
         2        44        10        43        10 8.640e-03         0
         2        44        10        44         9 8.640e-03         0
         2        46         9        45         9 8.640e-03         0
         2        46         9        46         8 8.640e-03         0
         2        48         8        47         8 8.640e-03         0
         2        48         8        48         7 8.640e-03         0
         2        50         7        49         7 8.640e-03         0
         2        50         7        50         6 8.640e-03         0
         2        47         9        47         8 8.640e-03         0
         2        50         6        51         6 8.640e-03         0
         2        51         6        50         6 8.640e-03         0
         2        49         7        49         8 8.640e-03         0
         2        49         8        49         7 8.640e-03         0
         2        45         9        45        10 8.640e-03         0
         2        45        10        45         9 8.640e-03         0
         2        40        12        39        12 8.640e-03         0
         2        40        12        40        13 8.640e-03         0
         2        40        12        40        11 8.640e-03         0
         2        40        12        40        13 8.640e-03         0
         2        38        13        37        13 8.640e-03         0
         2        38        13        38        12 8.640e-03         0
         2        42        11        41        11 8.640e-03         0
         2        42        11        42        10 8.640e-03         0
         2        42        11        42        10 8.640e-03         0
         2        42        11        42        10 8.640e-03         0
         2        43        10        43        11 8.640e-03         0
         2        43        11        43        10 8.640e-03         0
         2        41        11        42        11 8.640e-03         0
         2        41        11        41        12 8.640e-03         0
         2        57        13        57        14 6.480e-04         0
         2        58        13        58        14 6.480e-04         0
         2        59        13        59        14 6.480e-04         0
         2        60        13        60        14 6.480e-04         0
         2        61        13        61        14 6.480e-04         0
         2        62        13        62        14 6.480e-04         0
         2        63        13        63        14 6.480e-04         0
         2        64        13        64        14 6.480e-04         0
         2        65        13        65        14 6.480e-04         0
         2        66        13        66        14 6.480e-04         0
         2        67        13        67        14 6.480e-04         0
         2        68        13        68        14 6.480e-04         0
         2        69        13        69        14 6.480e-04         0
         2        70        13        70        14 6.480e-04         0
         2        71        13        71        14 6.480e-04         0
         2        72        13        72        14 6.480e-04         0
         2        73        13        73        14 6.480e-04         0
         2        74        13        74        14 6.480e-04         0
         2        75        13        75        14 6.480e-04         0
         2        76        13        76        14 6.480e-04         0
         2        77        13        77        14 6.480e-04         0
         2        78        13        78        14 6.480e-04         0
         2        79        13        79        14 6.480e-04         0
         2        80        13        80        14 6.480e-04         0
         2        81        13        81        14 6.480e-04         0
         2        82        13        82        14 6.480e-04         0
         2        83        13        83        14 6.480e-04         0
         2        84        13        84        14 6.480e-04         0
         2        85        13        85        14 6.480e-04         0
         2        86        13        86        14 6.480e-04         0
         2        87        13        87        14 6.480e-04         0
         2        88        13        88        14 6.480e-04         0
         2        89        13        89        14 6.480e-04         0
         2        90        13        90        14 6.480e-04         0
         2        91        13        91        14 6.480e-04         0
         2        92        13        92        14 6.480e-04         0
         2        93        13        93        14 6.480e-04         0
         2        94        13        94        14 6.480e-04         0
         2        95        13        95        14 6.480e-04         0
         2        96        13        96        14 6.480e-04         0
         2        97        13        97        14 6.480e-04         0
         2        98        13        98        14 6.480e-04         0
         2        99        13        99        14 6.480e-04         0
         2       100        13       100        14 6.480e-04         0
         2       101        13       101        14 6.480e-04         0
         2       102        13       102        14 6.480e-04         0
         2       103        13       103        14 6.480e-04         0
         2       104        13       104        14 6.480e-04         0
         2       105        13       105        14 7.776e-04         0
         2       106        13       106        14 7.776e-04         0
         2       107        14       107        15 7.776e-04         0
         2       108        14       108        15 7.776e-04         0
         2        56        13        56        14 6.480e-04         0
         2        56        14        56        13 6.480e-04         0
         2        55        13        55        14 6.480e-04         0
         2        55        14        55        13 6.480e-04         0
         2        54        13        54        14 6.480e-04         0
         2        54        14        54        13 6.480e-04         0
         2        53        13        53        14 6.480e-04         0
         2        53        14        53        13 6.480e-04         0
         2        52        13        52        14 6.480e-04         0
         2        52        14        52        13 6.480e-04         0
         2        51        13        51        14 6.480e-04         0
         2        51        14        51        13 6.480e-04         0
         2        50        13        50        14 6.480e-04         0
         2        50        14        50        13 6.480e-04         0
         2        49        13        49        14 6.480e-04         0
         2        49        14        49        13 6.480e-04         0
         2        38        13        38        14 6.480e-04         0
         2        38        14        38        13 6.480e-04         0
         2        39        13        39        14 6.480e-04         0
         2        39        14        39        13 6.480e-04         0
         2        40        13        40        14 6.480e-04         0
         2        40        14        40        13 6.480e-04         0
         2        41        13        41        14 6.480e-04         0
         2        41        14        41        13 6.480e-04         0
         2        42        13        42        14 6.480e-04         0
         2        42        14        42        13 6.480e-04         0
         2        43        13        43        14 6.480e-04         0
         2        43        14        43        13 6.480e-04         0
         2        48        13        48        14 6.480e-04         0
         2        48        14        48        13 6.480e-04         0
         2        47        13        47        14 6.480e-04         0
         2        47        14        47        13 6.480e-04         0
         2        39        12        39        13 8.640e-03         0
         2        39        13        39        12 8.640e-03         0
         2        44        13        44        14 6.480e-04         0
         2        44        14        44        13 6.480e-04         0
         2        45        13        45        14 6.480e-04         0
         2        45        14        45        13 6.480e-04         0
         2        46        13        46        14 6.480e-04         0
         2        46        14        46        13 6.480e-04         0
         2         7        13         7        14 6.480e-04         0
         2         8        13         8        14 6.480e-04         0
         2         8        14         8        13 6.480e-04         0
         2         9        13         9        14 6.480e-04         0
         2         9        14         9        13 6.480e-04         0
         2        10        13        10        14 6.480e-04         0
         2        10        14        10        13 6.480e-04         0
         2        11        13        11        14 6.480e-04         0
         2        11        14        11        13 6.480e-04         0
         2        12        13        12        14 6.480e-04         0
         2        12        14        12        13 6.480e-04         0
         2        13        13        13        14 6.480e-04         0
         2        13        14        13        13 6.480e-04         0
         2        14        13        14        14 6.480e-04         0
         2        14        14        14        13 6.480e-04         0
         2        15        13        15        14 6.480e-04         0
         2        15        14        15        13 6.480e-04         0
         2        16        13        16        14 6.480e-04         0
         2        16        14        16        13 6.480e-04         0
         2        17        13        17        14 6.480e-04         0
         2        17        14        17        13 6.480e-04         0
         2        18        13        18        14 6.480e-04         0
         2        18        14        18        13 6.480e-04         0
         2        19        13        19        14 6.480e-04         0
         2        19        14        19        13 6.480e-04         0
         2        20        13        20        14 6.480e-04         0
         2        20        14        20        13 6.480e-04         0
         2        21        13        21        14 6.480e-04         0
         2        21        14        21        13 6.480e-04         0
         2        31        13        31        14 6.480e-04         0
         2        31        14        31        13 6.480e-04         0
         2        30        13        30        14 6.480e-04         0
         2        30        14        30        13 6.480e-04         0
         2        25        13        25        14 6.480e-04         0
         2        25        14        25        13 6.480e-04         0
         2        24        13        24        14 6.480e-04         0
         2        24        14        24        13 6.480e-04         0
         2        23        13        23        14 6.480e-04         0
         2        23        14        23        13 6.480e-04         0
         2        22        13        22        14 6.480e-04         0
         2        22        14        22        13 6.480e-04         0
         2        27        13        27        14 6.480e-04         0
         2        27        14        27        13 6.480e-04         0
         2        26        13        26        14 6.480e-04         0
         2        26        14        26        13 6.480e-04         0
         2        28        13        28        14 6.480e-04         0
         2        28        14        28        13 6.480e-04         0
         2        29        13        29        14 6.480e-04         0
         2        29        14        29        13 6.480e-04         0
         2        32        13        32        14 6.480e-04         0
         2        32        14        32        13 6.480e-04         0
         2        35        13        35        14 6.480e-04         0
         2        36        13        36        14 6.480e-04         0
         2        37        13        37        14 6.480e-04         0
         2        37        14        37        13 6.480e-04         0
         2        33        13        33        14 6.480e-04         0
         2        33        14        33        13 6.480e-04         0
         2        34        13        34        14 6.480e-04         0
         2         9        78        10        78 2.160e-05         0
         2         9        79        10        79 2.160e-05         0
         2         9        80        10        80 2.160e-05         0
         2         9        81        10        81 2.160e-05         0
         2         9        82         8        82 2.160e-05         0
         2         9        82         9        81 2.160e-05         0
         2        10        73        11        73 2.160e-05         0
         2        10        75        11        75 2.160e-05         0
         2        10        76        11        76 2.160e-05         0
         2        10        77         9        77 2.160e-05         0
         2        10        77        10        76 2.160e-05         0
         2        11        69        12        69 2.160e-05         0
         2        11        70        12        70 2.160e-05         0
         2        11        71        12        71 2.160e-05         0
         2        11        72        10        72 2.160e-05         0
         2        11        72        11        71 2.160e-05         0
         2        12        66        13        66 2.160e-05         0
         2        12        67        13        67 2.160e-05         0
         2        12        68        11        68 2.160e-05         0
         2        12        68        12        67 2.160e-05         0
         2         8        82         9        82 2.160e-05         0
         2        10        74        11        74 2.160e-05         0
         2        11        74        10        74 2.160e-05         0
         2        13        63        14        63 2.160e-05         0
         2        13        63        13        64 2.160e-05         0
         2        14        59        15        59 2.160e-05         0
         2        14        60        15        60 2.160e-05         0
         2        14        61        15        61 2.160e-05         0
         2        14        62        13        62 2.160e-05         0
         2        14        62        14        61 2.160e-05         0
         2        15        56        16        56 2.160e-05         0
         2        15        57        16        57 2.160e-05         0
         2        15        58        14        58 2.160e-05         0
         2        15        58        15        57 2.160e-05         0
         2        16        55        15        55 2.160e-05         0
         2        16        55        16        54 2.160e-05         0
         2        13        64        12        64 2.160e-05         0
         2        13        64        13        63 2.160e-05         0
         2        12        64        13        64 2.160e-05         0
         2        12        65        13        65 2.160e-05         0
         2        13        65        12        65 2.160e-05         0
         2        17        50        18        50 2.160e-05         0
         2        17        51        16        51 2.160e-05         0
         2        17        51        17        50 2.160e-05         0
         2        18        45        19        45 2.160e-05         0
         2        18        46        19        46 2.160e-05         0
         2        18        47        19        47 2.160e-05         0
         2        18        48        17        48 2.160e-05         0
         2        18        48        18        47 2.160e-05         0
         2        19        42        20        42 2.160e-05         0
         2        19        43        20        43 2.160e-05         0
         2        19        44        18        44 2.160e-05         0
         2        19        44        19        43 2.160e-05         0
         2        20        40        21        40 2.160e-05         0
         2        20        41        19        41 2.160e-05         0
         2        20        41        20        40 2.160e-05         0
         2        17        49        18        49 2.160e-05         0
         2        18        49        17        49 2.160e-05         0
         2        16        54        17        54 2.160e-05         0
         2        17        54        16        54 2.160e-05         0
         2        16        53        17        53 2.160e-05         0
         2        17        53        16        53 2.160e-05         0
         2        16        52        17        52 2.160e-05         0
         2        17        52        16        52 2.160e-05         0
         2        21        38        22        38 2.160e-05         0
         2        21        39        20        39 2.160e-05         0
         2        21        39        21        38 2.160e-05         0
         2        22        35        23        35 2.160e-05         0
         2        22        36        21        36 2.160e-05         0
         2        22        36        22        35 2.160e-05         0
         2        23        33        24        33 2.160e-05         0
         2        23        34        22        34 2.160e-05         0
         2        23        34        23        33 2.160e-05         0
         2        24        32        23        32 2.160e-05         0
         2        24        32        24        31 2.160e-05         0
         2        25        30        26        30 2.160e-05         0
         2        25        31        24        31 2.160e-05         0
         2        25        31        25        30 2.160e-05         0
         2        26        28        27        28 2.160e-05         0
         2        26        29        25        29 2.160e-05         0
         2        26        29        26        28 2.160e-05         0
         2        21        37        22        37 2.160e-05         0
         2        22        37        21        37 2.160e-05         0
         2        20        39        21        39 2.160e-05         0
         2        28        24        29        24 2.160e-05         0
         2        28        25        27        25 2.160e-05         0
         2        28        25        28        24 2.160e-05         0
         2        29        22        30        22 2.160e-05         0
         2        29        23        28        23 2.160e-05         0
         2        29        23        29        22 2.160e-05         0
         2        30        19        31        19 2.160e-05         0
         2        30        20        31        20 2.160e-05         0
         2        30        21        29        21 2.160e-05         0
         2        30        21        30        20 2.160e-05         0
         2        31        18        30        18 2.160e-05         0
         2        31        18        31        17 2.160e-05         0
         2        32        16        33        16 2.160e-05         0
         2        32        16        32        17 2.160e-05         0
         2        32        17        31        17 2.160e-05         0
         2        32        17        32        16 2.160e-05         0
         2        33        15        34        15 2.160e-05         0
         2        33        15        33        16 2.160e-05         0
         2        33        16        32        16 2.160e-05         0
         2        33        16        33        15 2.160e-05         0
         2        26        26        27        26 2.160e-05         0
         2        27        26        26        26 2.160e-05         0
         2        27        26        27        25 2.160e-05         0
         2        26        27        27        27 2.160e-05         0
         2        27        27        26        27 2.160e-05         0
         2        27        25        27        26 2.160e-05         0
         2        34        15        33        15 2.160e-05         0
         2        34        15        34        14 2.160e-05         0
         2        36        14        37        14 2.160e-05         0
         2        36        14        36        15 2.160e-05         0
         2        37        14        36        14 2.160e-05         0
         2        35        14        35        15 2.160e-05         0
         2        35        15        35        14 2.160e-05         0
         2        36        15        36        14 2.160e-05         0
         2         8        83         9        83 8.640e-05         0
         2         9        83         8        83 8.640e-05         0
         2         7       106         8       106 8.640e-05         0
         2         7       107         8       107 8.640e-05         0
         2         8        86         9        86 8.640e-05         0
         2         8        87         9        87 8.640e-05         0
         2         8        88         9        88 8.640e-05         0
         2         8        89         9        89 8.640e-05         0
         2         8        90         9        90 8.640e-05         0
         2         8        91         9        91 8.640e-05         0
         2         8        92         9        92 8.640e-05         0
         2         8        93         9        93 8.640e-05         0
         2         8        96         9        96 8.640e-05         0
         2         8        97         9        97 8.640e-05         0
         2         8        98         9        98 8.640e-05         0
         2         8        99         9        99 8.640e-05         0
         2         8       100         9       100 8.640e-05         0
         2         8       101         9       101 8.640e-05         0
         2         8       102         9       102 8.640e-05         0
         2         8       103         9       103 8.640e-05         0
         2         8       104         9       104 8.640e-05         0
         2         8       105         7       105 8.640e-05         0
         2         8       105         8       104 8.640e-05         0
         2         8        84         9        84 8.640e-05         0
         2         8        85         9        85 8.640e-05         0
         2         7       111         8       111 8.640e-05         0
         2         7       112         8       112 8.640e-05         0
         2         7       113         8       113 8.640e-05         0
         2         7       114         8       114 8.640e-05         0
         2         7       117         8       117 8.640e-05         0
         2         7       118         8       118 8.640e-05         0
         2         7       119         8       119 8.640e-05         0
         2         7       120         8       120 8.640e-05         0
         2         7       121         8       121 8.640e-05         0
         2         7       122         8       122 8.640e-05         0
         2         7       123         8       123 8.640e-05         0
         2         7       124         8       124 8.640e-05         0
         2         7       125         8       125 8.640e-05         0
         2         7       126         8       126 8.640e-05         0
         2         7       127         8       127 8.640e-05         0
         2         7       128         8       128 8.640e-05         0
         2         7       129         8       129 8.640e-05         0
         2         7       129         7       130 8.640e-05         0
         2         7       108         8       108 8.640e-05         0
         2         8       108         7       108 8.640e-05         0
         2         7       109         8       109 8.640e-05         0
         2         8       109         7       109 8.640e-05         0
         2         7       110         8       110 8.640e-05         0
         2         8       110         7       110 8.640e-05         0
         2         7       115         8       115 8.640e-05         0
         2         8       115         7       115 8.640e-05         0
         2         7       116         8       116 8.640e-05         0
         2         8       116         7       116 8.640e-05         0
         2         5       146         6       146 8.640e-05         0
         2         6       145         7       145 8.640e-05         0
         2         6       145         6       146 8.640e-05         0
         2         6       144         7       144 8.640e-05         0
         2         7       144         6       144 8.640e-05         0
         2         6       143         7       143 8.640e-05         0
         2         7       143         6       143 8.640e-05         0
         2         6       142         7       142 8.640e-05         0
         2         7       142         6       142 8.640e-05         0
         2         6       141         7       141 8.640e-05         0
         2         7       141         6       141 8.640e-05         0
         2         7       130         6       130 8.640e-05         0
         2         7       130         7       129 8.640e-05         0
         2         6       130         7       130 8.640e-05         0
         2         6       131         7       131 8.640e-05         0
         2         7       131         6       131 8.640e-05         0
         2         6       132         7       132 8.640e-05         0
         2         7       132         6       132 8.640e-05         0
         2         6       133         7       133 8.640e-05         0
         2         7       133         6       133 8.640e-05         0
         2         6       134         7       134 8.640e-05         0
         2         7       134         6       134 8.640e-05         0
         2         6       135         7       135 8.640e-05         0
         2         7       135         6       135 8.640e-05         0
         2         6       136         7       136 8.640e-05         0
         2         7       136         6       136 8.640e-05         0
         2         6       137         7       137 8.640e-05         0
         2         7       137         6       137 8.640e-05         0
         2         6       138         7       138 8.640e-05         0
         2         7       138         6       138 8.640e-05         0
         2         6       139         7       139 8.640e-05         0
         2         7       139         6       139 8.640e-05         0
         2         6       140         7       140 8.640e-05         0
         2         7       140         6       140 8.640e-05         0
         2         3       152         4       152 8.640e-05         0
         2         3       152         3       153 8.640e-05         0
         2         3       153         2       153 8.640e-05         0
         2         3       153         3       152 8.640e-05         0
         2         4       151         5       151 8.640e-05         0
         2         4       152         3       152 8.640e-05         0
         2         4       152         4       151 8.640e-05         0
         2         5       150         4       150 8.640e-05         0
         2         5       150         5       149 8.640e-05         0
         2         2       153         2       154 8.640e-05         0
         2         2       154         2       153 8.640e-05         0
         2         5       147         6       147 8.640e-05         0
         2         6       147         5       147 8.640e-05         0
         2         5       148         6       148 8.640e-05         0
         2         6       148         5       148 8.640e-05         0
         2         5       149         6       149 8.640e-05         0
         2         6       149         5       149 8.640e-05         0
         2         8        94         9        94 8.640e-05         0
         2         9        94         8        94 8.640e-05         0
         2         8        95         9        95 8.640e-05         0
         2         9        95         8        95 8.640e-05         0
         2       104        54       103        54 8.640e-08         0
         2       104        55       103        55 8.640e-08         0
         2       104        56       103        56 8.640e-08         0
         2       104        57       103        57 8.640e-08         0
         2       104        58       103        58 8.640e-08         0
         2       104        59       103        59 8.640e-08         0
         2       104        60       103        60 8.640e-08         0
         2       104        61       103        61 8.640e-08         0
         2       104        62       103        62 8.640e-08         0
         2       104        63       103        63 8.640e-08         0
         2       104        63       104        64 8.640e-08         0
         2       104        64       105        64 8.640e-08         0