# MODFLOW-USGs Constant-Head Boundary Package (CHD)
        22
 22
 1   50.000000  50.000000
 11   100.000000  100.000000
 12   50.000000  50.000000
 22   100.000000  100.000000
 23   50.000000  50.000000
 33   100.000000  100.000000
 34   50.000000  50.000000
 44   100.000000  100.000000
 45   50.000000  50.000000
 55   100.000000  100.000000
 56   50.000000  50.000000
 66   100.000000  100.000000
 67   50.000000  50.000000
 77   100.000000  100.000000
 78   50.000000  50.000000
 88   100.000000  100.000000
 89   50.000000  50.000000
 99   100.000000  100.000000
 100   50.000000  50.000000
 110   100.000000  100.000000
 111   50.000000  50.000000
 121   100.000000  100.000000
