# MODFLOW-USGs Basic Package
# MODFLOW2000 Dataset Imported into Groundwater Vistas
#   
 UNSTRUCTURED FREE
INTERNAL  1  (FREE)  -1  IBOUND Layer 1
 1 1 1 1 1 1 1 1 1 1
 1 1 1 1 1 1 1 1 1 1
 1 1 1 1 1 1 1 1 1 1
 1 1 1 1 1 1 1 1 1 1
 1 1 1 1 1 1 1 1 1 1
 1 1 1 1 1 1 1 1 1 1
 1 1 1 1 1 1 1 1 1 1
 1 1 1 1 1 1 1 1 1 1
 1 1 1 1 1 1 1 1 1 1
 1 1 1 1 1 1 1 1 1 1
 1 1 1 1 1 1 1 1 1 1
 1 1 1 1 1 1 1 1 1 1
 1
-9.990000e+002
INTERNAL  1.000000e+000  (FREE)  -1  Starting Heads Layer 1
 5.000000e+001 5.500000e+001 6.000000e+001 6.500000e+001 7.000000e+001 7.500000e+001 8.000000e+001 8.500000e+001 9.000000e+001 9.500000e+001
 1.000000e+002 5.000000e+001 5.500000e+001 6.000000e+001 6.500000e+001 7.000000e+001 7.500000e+001 8.000000e+001 8.500000e+001 9.000000e+001
 9.500000e+001 1.000000e+002 5.000000e+001 5.500000e+001 6.000000e+001 6.500000e+001 7.000000e+001 7.500000e+001 8.000000e+001 8.500000e+001
 9.000000e+001 9.500000e+001 1.000000e+002 5.000000e+001 5.500000e+001 6.000000e+001 6.500000e+001 7.000000e+001 7.500000e+001 8.000000e+001
 8.500000e+001 9.000000e+001 9.500000e+001 1.000000e+002 5.000000e+001 5.500000e+001 6.000000e+001 6.500000e+001 7.000000e+001 7.500000e+001
 8.000000e+001 8.500000e+001 9.000000e+001 9.500000e+001 1.000000e+002 5.000000e+001 5.500000e+001 6.000000e+001 6.500000e+001 7.000000e+001
 7.500000e+001 8.000000e+001 8.500000e+001 9.000000e+001 9.500000e+001 1.000000e+002 5.000000e+001 5.500000e+001 6.000000e+001 6.500000e+001
 7.000000e+001 7.500000e+001 8.000000e+001 8.500000e+001 9.000000e+001 9.500000e+001 1.000000e+002 5.000000e+001 5.500000e+001 6.000000e+001
 6.500000e+001 7.000000e+001 7.500000e+001 8.000000e+001 8.500000e+001 9.000000e+001 9.500000e+001 1.000000e+002 5.000000e+001 5.500000e+001
 6.000000e+001 6.500000e+001 7.000000e+001 7.500000e+001 8.000000e+001 8.500000e+001 9.000000e+001 9.500000e+001 1.000000e+002 5.000000e+001
 5.500000e+001 6.000000e+001 6.500000e+001 7.000000e+001 7.500000e+001 8.000000e+001 8.500000e+001 9.000000e+001 9.500000e+001 1.000000e+002
 5.000000e+001 5.500000e+001 6.000000e+001 6.500000e+001 7.000000e+001 7.500000e+001 8.000000e+001 8.500000e+001 9.000000e+001 9.500000e+001
 1.000000e+002
