# Well file for MODFLOW, generated by Flopy.
         2         0 autoflowreduce IUNITAFR 77
         2         0
        5        11        11 -1.000000e+03
        5        11        11 -1.000000e+03
         2         0
        5        11        11 -1.000000e+00
        5        11        11 -1.000000e+00
         2         0
        5        11        11 -1.000000e+03
        5        11        11 -1.000000e+03
