                                  MODFLOW-USG      
      U.S. GEOLOGICAL SURVEY MODULAR FINITE-DIFFERENCE GROUNDWATER FLOW MODEL
                            VERSION 1.5.00 XX/XX/201X

 LIST FILE: DEN4Tc.lst
                         UNIT    7

 OPENING DEN4Tc.bas
 FILE TYPE:BAS6   UNIT    1   STATUS:OLD    
 FORMAT:FORMATTED              ACCESS:SEQUENTIAL          

 OPENING DEN4Tc.sms
 FILE TYPE:SMS   UNIT   19   STATUS:OLD    
 FORMAT:FORMATTED              ACCESS:SEQUENTIAL          

 OPENING DEN4Tc.dis
 FILE TYPE:DISU   UNIT   29   STATUS:OLD    
 FORMAT:FORMATTED              ACCESS:SEQUENTIAL          

 OPENING DEN4Tc.oc
 FILE TYPE:OC   UNIT   22   STATUS:OLD    
 FORMAT:FORMATTED              ACCESS:SEQUENTIAL          

 OPENING DEN4Tc.wel
 FILE TYPE:WEL   UNIT   63   STATUS:OLD    
 FORMAT:FORMATTED              ACCESS:SEQUENTIAL          

 OPENING DEN4Tc.drn
 FILE TYPE:DRN   UNIT   13   STATUS:OLD    
 FORMAT:FORMATTED              ACCESS:SEQUENTIAL          

 OPENING DEN4Tc.chd
 FILE TYPE:CHD   UNIT  199   STATUS:OLD    
 FORMAT:FORMATTED              ACCESS:SEQUENTIAL          

 OPENING DEN4Tc.lpf
 FILE TYPE:LPF   UNIT   11   STATUS:OLD    
 FORMAT:FORMATTED              ACCESS:SEQUENTIAL          

 OPENING DEN4Tc.cln
 FILE TYPE:CLN   UNIT  221   STATUS:OLD    
 FORMAT:FORMATTED              ACCESS:SEQUENTIAL          
#TIB  33 DEN4Tc.tib                                                                                                                                                                                                                                                                                         

 OPENING DEN4Tc_cln.hds
 FILE TYPE:DATA(BINARY)   UNIT   34   STATUS:UNKNOWN
 FORMAT:UNFORMATTED            ACCESS:STREAM              

 OPENING DEN4Tc.cbcln
 FILE TYPE:DATA(BINARY)   UNIT   24   STATUS:UNKNOWN
 FORMAT:UNFORMATTED            ACCESS:STREAM              

 OPENING DEN4Tc.cbb
 FILE TYPE:DATA(BINARY)   UNIT   50   STATUS:UNKNOWN
 FORMAT:UNFORMATTED            ACCESS:STREAM              

 OPENING DEN4Tc.hds
 FILE TYPE:DATA(BINARY)   UNIT   30   STATUS:UNKNOWN
 FORMAT:UNFORMATTED            ACCESS:STREAM              

 OPENING DEN4Tc.ddn
 FILE TYPE:DATA(BINARY)   UNIT   31   STATUS:UNKNOWN
 FORMAT:UNFORMATTED            ACCESS:STREAM              

 BAS -- BASIC PACKAGE-USG      1.5.00 XX/XX/201X                        INPUT READ FROM UNIT    1

 # MODFLOW-USGs Basic Package                                                    
 # MODFLOW Data Set Created by Groundwater Vistas                                
 #
 THE FREE FORMAT OPTION HAS BEEN SELECTED
 THE UNSTRUCTURED GRID OPTION HAS BEEN SELECTED

 DIS -- UNSTRUCTURED GRID DISCRETIZATION PACKAGE, VERSION 1 : 5/17/2010 - INPUT READ FROM UNIT   29
       9660 NODES        10 NLAY     64388 NJAG  VERT. SUBDISCRETIZATION INDEX, IVSD = -1
 INDEX FOR INPUT OF UNSTRUCTURED, FINITE-VOLUME CONNECTIVITY INFORMATION, IDSYMRD =   0
    4 STRESS PERIOD(S) IN SIMULATION
 MODEL TIME UNIT IS DAYS
 MODEL LENGTH UNIT IS METERS
  Confining bed flag for each layer:
   0   0   0   0   0   0   0   0   0   0

 CLN -- CONNECTED LINE NETWORK DISCRETIZATION PROCESS, VERSION 1, 3/3/2012 INPUT READ FROM UNIT  221
 FLAG (0) OR MAXIMUM NUMBER OF LINEAR NODES (NCLN) =     66
 FLAG (-VE) OR NUMBER OF LINEAR NODES (+VE) (ICLNNDS) =   -378
 NUMBER OF LINEAR NODE TO MATRIX GRID CONNECTIONS (NCLNGWC) =    378

 CELL-BY-CELL FLOWS WILL BE SAVED ON UNIT    24(FLAG ICLNCB IS GREATER THAN ZERO)
 CLN HEAD OUTPUT WILL BE SAVED ON UNIT   34(FLAG ICLNHD IS GREATER THAN ZERO)
 CLN DDN OUTPUT WILL NOT BE SAVED OR PRINTED (FLAG ICLNDD IS EQUAL TO ZERO)
 CLN IBOUND OUTPUT WILL NOT BE SAVED OR PRINTED (FLAG ICLNIB IS EQUAL TO ZERO)



              NODES PER CLN SEGMENT
 READING ON UNIT  221 WITH FORMAT: (FREE)              
         5         5         5         5         5         5         6         6
         6         6         6         6         6         6         6         6
         6         6         6         6         6         6         5         5
         5         5         5         5         6         6         6         6
         6         6         6         6         6         6         6         6
         6         6         6         6         5         5         5         5
         5         5         6         6         6         6         6         6
         6         6         6         6         6         6         6         6
         6         6

                     CONNECTED LINE NETWORK INFORMATION
                    ----------------------------------------
     CLN-NODE NO. CLNTYP ORIENTATION  CLN LENGTH    BOT ELEVATION         FANGLE         IFLIN           ICCWADI
     -----------  ------ ----------- -----------    -------------    -----------        ------    -------
              1      1          0    0.580000E+02    0.112000E+03    0.000000E+00         -1          0
              2      1          0    0.830000E+02    0.290000E+02    0.000000E+00         -1          0
              3      1          0    0.260000E+02    0.300000E+01    0.000000E+00         -1          0
              4      1          0    0.300000E+01    0.000000E+00    0.000000E+00         -1          0
              5      1          0    0.200000E+02   -0.200000E+02    0.000000E+00         -1          0
              6      2          0    0.580000E+02    0.112000E+03    0.000000E+00         -1          0
              7      2          0    0.830000E+02    0.290000E+02    0.000000E+00         -1          0
              8      2          0    0.260000E+02    0.300000E+01    0.000000E+00         -1          0
              9      2          0    0.300000E+01    0.000000E+00    0.000000E+00         -1          0
             10      2          0    0.200000E+02   -0.200000E+02    0.000000E+00         -1          0
             11      3          0    0.580000E+02    0.112000E+03    0.000000E+00         -1          0
             12      3          0    0.830000E+02    0.290000E+02    0.000000E+00         -1          0
             13      3          0    0.260000E+02    0.300000E+01    0.000000E+00         -1          0
             14      3          0    0.300000E+01    0.000000E+00    0.000000E+00         -1          0
             15      3          0    0.200000E+02   -0.200000E+02    0.000000E+00         -1          0
             16      4          0    0.580000E+02    0.112000E+03    0.000000E+00         -1          0
             17      4          0    0.830000E+02    0.290000E+02    0.000000E+00         -1          0
             18      4          0    0.260000E+02    0.300000E+01    0.000000E+00         -1          0
             19      4          0    0.300000E+01    0.000000E+00    0.000000E+00         -1          0
             20      4          0    0.200000E+02   -0.200000E+02    0.000000E+00         -1          0
             21      5          0    0.580000E+02    0.112000E+03    0.000000E+00         -1          0
             22      5          0    0.830000E+02    0.290000E+02    0.000000E+00         -1          0
             23      5          0    0.260000E+02    0.300000E+01    0.000000E+00         -1          0
             24      5          0    0.300000E+01    0.000000E+00    0.000000E+00         -1          0
             25      5          0    0.200000E+02   -0.200000E+02    0.000000E+00         -1          0
             26      6          0    0.580000E+02    0.112000E+03    0.000000E+00         -1          0
             27      6          0    0.830000E+02    0.290000E+02    0.000000E+00         -1          0
             28      6          0    0.260000E+02    0.300000E+01    0.000000E+00         -1          0
             29      6          0    0.300000E+01    0.000000E+00    0.000000E+00         -1          0
             30      6          0    0.200000E+02   -0.200000E+02    0.000000E+00         -1          0
             31      7          0    0.510000E+02    0.170000E+03    0.000000E+00         -1          0
             32      7          0    0.580000E+02    0.112000E+03    0.000000E+00         -1          0
             33      7          0    0.830000E+02    0.290000E+02    0.000000E+00         -1          0
             34      7          0    0.260000E+02    0.300000E+01    0.000000E+00         -1          0
             35      7          0    0.300000E+01    0.000000E+00    0.000000E+00         -1          0
             36      7          0    0.200000E+02   -0.200000E+02    0.000000E+00         -1          0
             37      8          0    0.510000E+02    0.170000E+03    0.000000E+00         -1          0
             38      8          0    0.580000E+02    0.112000E+03    0.000000E+00         -1          0
             39      8          0    0.830000E+02    0.290000E+02    0.000000E+00         -1          0
             40      8          0    0.260000E+02    0.300000E+01    0.000000E+00         -1          0
             41      8          0    0.300000E+01    0.000000E+00    0.000000E+00         -1          0
             42      8          0    0.200000E+02   -0.200000E+02    0.000000E+00         -1          0
             43      9          0    0.510000E+02    0.170000E+03    0.000000E+00         -1          0
             44      9          0    0.580000E+02    0.112000E+03    0.000000E+00         -1          0
             45      9          0    0.830000E+02    0.290000E+02    0.000000E+00         -1          0
             46      9          0    0.260000E+02    0.300000E+01    0.000000E+00         -1          0
             47      9          0    0.300000E+01    0.000000E+00    0.000000E+00         -1          0
             48      9          0    0.200000E+02   -0.200000E+02    0.000000E+00         -1          0
             49     10          0    0.510000E+02    0.170000E+03    0.000000E+00         -1          0
             50     10          0    0.580000E+02    0.112000E+03    0.000000E+00         -1          0
             51     10          0    0.830000E+02    0.290000E+02    0.000000E+00         -1          0
             52     10          0    0.260000E+02    0.300000E+01    0.000000E+00         -1          0
             53     10          0    0.300000E+01    0.000000E+00    0.000000E+00         -1          0
             54     10          0    0.200000E+02   -0.200000E+02    0.000000E+00         -1          0
             55     11          0    0.510000E+02    0.170000E+03    0.000000E+00         -1          0
             56     11          0    0.580000E+02    0.112000E+03    0.000000E+00         -1          0
             57     11          0    0.830000E+02    0.290000E+02    0.000000E+00         -1          0
             58     11          0    0.260000E+02    0.300000E+01    0.000000E+00         -1          0
             59     11          0    0.300000E+01    0.000000E+00    0.000000E+00         -1          0
             60     11          0    0.200000E+02   -0.200000E+02    0.000000E+00         -1          0
             61     12          0    0.510000E+02    0.170000E+03    0.000000E+00         -1          0
             62     12          0    0.580000E+02    0.112000E+03    0.000000E+00         -1          0
             63     12          0    0.830000E+02    0.290000E+02    0.000000E+00         -1          0
             64     12          0    0.260000E+02    0.300000E+01    0.000000E+00         -1          0
             65     12          0    0.300000E+01    0.000000E+00    0.000000E+00         -1          0
             66     12          0    0.200000E+02   -0.200000E+02    0.000000E+00         -1          0
             67     13          0    0.510000E+02    0.170000E+03    0.000000E+00         -1          0
             68     13          0    0.580000E+02    0.112000E+03    0.000000E+00         -1          0
             69     13          0    0.830000E+02    0.290000E+02    0.000000E+00         -1          0
             70     13          0    0.260000E+02    0.300000E+01    0.000000E+00         -1          0
             71     13          0    0.300000E+01    0.000000E+00    0.000000E+00         -1          0
             72     13          0    0.200000E+02   -0.200000E+02    0.000000E+00         -1          0
             73     14          0    0.510000E+02    0.170000E+03    0.000000E+00         -1          0
             74     14          0    0.580000E+02    0.112000E+03    0.000000E+00         -1          0
             75     14          0    0.830000E+02    0.290000E+02    0.000000E+00         -1          0
             76     14          0    0.260000E+02    0.300000E+01    0.000000E+00         -1          0
             77     14          0    0.300000E+01    0.000000E+00    0.000000E+00         -1          0
             78     14          0    0.200000E+02   -0.200000E+02    0.000000E+00         -1          0
             79     15          0    0.510000E+02    0.170000E+03    0.000000E+00         -1          0
             80     15          0    0.580000E+02    0.112000E+03    0.000000E+00         -1          0
             81     15          0    0.830000E+02    0.290000E+02    0.000000E+00         -1          0
             82     15          0    0.260000E+02    0.300000E+01    0.000000E+00         -1          0
             83     15          0    0.300000E+01    0.000000E+00    0.000000E+00         -1          0
             84     15          0    0.200000E+02   -0.200000E+02    0.000000E+00         -1          0
             85     16          0    0.510000E+02    0.170000E+03    0.000000E+00         -1          0
             86     16          0    0.580000E+02    0.112000E+03    0.000000E+00         -1          0
             87     16          0    0.830000E+02    0.290000E+02    0.000000E+00         -1          0
             88     16          0    0.260000E+02    0.300000E+01    0.000000E+00         -1          0
             89     16          0    0.300000E+01    0.000000E+00    0.000000E+00         -1          0
             90     16          0    0.200000E+02   -0.200000E+02    0.000000E+00         -1          0
             91     17          0    0.510000E+02    0.170000E+03    0.000000E+00         -1          0
             92     17          0    0.580000E+02    0.112000E+03    0.000000E+00         -1          0
             93     17          0    0.830000E+02    0.290000E+02    0.000000E+00         -1          0
             94     17          0    0.260000E+02    0.300000E+01    0.000000E+00         -1          0
             95     17          0    0.300000E+01    0.000000E+00    0.000000E+00         -1          0
             96     17          0    0.200000E+02   -0.200000E+02    0.000000E+00         -1          0
             97     18          0    0.510000E+02    0.170000E+03    0.000000E+00         -1          0
             98     18          0    0.580000E+02    0.112000E+03    0.000000E+00         -1          0
             99     18          0    0.830000E+02    0.290000E+02    0.000000E+00         -1          0
            100     18          0    0.260000E+02    0.300000E+01    0.000000E+00         -1          0
            101     18          0    0.300000E+01    0.000000E+00    0.000000E+00         -1          0
            102     18          0    0.200000E+02   -0.200000E+02    0.000000E+00         -1          0
            103     19          0    0.510000E+02    0.170000E+03    0.000000E+00         -1          0
            104     19          0    0.580000E+02    0.112000E+03    0.000000E+00         -1          0
            105     19          0    0.830000E+02    0.290000E+02    0.000000E+00         -1          0
            106     19          0    0.260000E+02    0.300000E+01    0.000000E+00         -1          0
            107     19          0    0.300000E+01    0.000000E+00    0.000000E+00         -1          0
            108     19          0    0.200000E+02   -0.200000E+02    0.000000E+00         -1          0
            109     20          0    0.510000E+02    0.170000E+03    0.000000E+00         -1          0
            110     20          0    0.580000E+02    0.112000E+03    0.000000E+00         -1          0
            111     20          0    0.830000E+02    0.290000E+02    0.000000E+00         -1          0
            112     20          0    0.260000E+02    0.300000E+01    0.000000E+00         -1          0
            113     20          0    0.300000E+01    0.000000E+00    0.000000E+00         -1          0
            114     20          0    0.200000E+02   -0.200000E+02    0.000000E+00         -1          0
            115     21          0    0.510000E+02    0.170000E+03    0.000000E+00         -1          0
            116     21          0    0.580000E+02    0.112000E+03    0.000000E+00         -1          0
            117     21          0    0.830000E+02    0.290000E+02    0.000000E+00         -1          0
            118     21          0    0.260000E+02    0.300000E+01    0.000000E+00         -1          0
            119     21          0    0.300000E+01    0.000000E+00    0.000000E+00         -1          0
            120     21          0    0.200000E+02   -0.200000E+02    0.000000E+00         -1          0
            121     22          0    0.510000E+02    0.170000E+03    0.000000E+00         -1          0
            122     22          0    0.580000E+02    0.112000E+03    0.000000E+00         -1          0
            123     22          0    0.830000E+02    0.290000E+02    0.000000E+00         -1          0
            124     22          0    0.260000E+02    0.300000E+01    0.000000E+00         -1          0
            125     22          0    0.300000E+01    0.000000E+00    0.000000E+00         -1          0
            126     22          0    0.200000E+02   -0.200000E+02    0.000000E+00         -1          0
            127     23          0    0.580000E+02    0.112000E+03    0.000000E+00         -1          0
            128     23          0    0.830000E+02    0.290000E+02    0.000000E+00         -1          0
            129     23          0    0.260000E+02    0.300000E+01    0.000000E+00         -1          0
            130     23          0    0.300000E+01    0.000000E+00    0.000000E+00         -1          0
            131     23          0    0.200000E+02   -0.200000E+02    0.000000E+00         -1          0
            132     24          0    0.580000E+02    0.112000E+03    0.000000E+00         -1          0
            133     24          0    0.830000E+02    0.290000E+02    0.000000E+00         -1          0
            134     24          0    0.260000E+02    0.300000E+01    0.000000E+00         -1          0
            135     24          0    0.300000E+01    0.000000E+00    0.000000E+00         -1          0
            136     24          0    0.200000E+02   -0.200000E+02    0.000000E+00         -1          0
            137     25          0    0.580000E+02    0.112000E+03    0.000000E+00         -1          0
            138     25          0    0.830000E+02    0.290000E+02    0.000000E+00         -1          0
            139     25          0    0.260000E+02    0.300000E+01    0.000000E+00         -1          0
            140     25          0    0.300000E+01    0.000000E+00    0.000000E+00         -1          0
            141     25          0    0.200000E+02   -0.200000E+02    0.000000E+00         -1          0
            142     26          0    0.580000E+02    0.112000E+03    0.000000E+00         -1          0
            143     26          0    0.830000E+02    0.290000E+02    0.000000E+00         -1          0
            144     26          0    0.260000E+02    0.300000E+01    0.000000E+00         -1          0
            145     26          0    0.300000E+01    0.000000E+00    0.000000E+00         -1          0
            146     26          0    0.200000E+02   -0.200000E+02    0.000000E+00         -1          0
            147     27          0    0.580000E+02    0.112000E+03    0.000000E+00         -1          0
            148     27          0    0.830000E+02    0.290000E+02    0.000000E+00         -1          0
            149     27          0    0.260000E+02    0.300000E+01    0.000000E+00         -1          0
            150     27          0    0.300000E+01    0.000000E+00    0.000000E+00         -1          0
            151     27          0    0.200000E+02   -0.200000E+02    0.000000E+00         -1          0
            152     28          0    0.580000E+02    0.112000E+03    0.000000E+00         -1          0
            153     28          0    0.830000E+02    0.290000E+02    0.000000E+00         -1          0
            154     28          0    0.260000E+02    0.300000E+01    0.000000E+00         -1          0
            155     28          0    0.300000E+01    0.000000E+00    0.000000E+00         -1          0
            156     28          0    0.200000E+02   -0.200000E+02    0.000000E+00         -1          0
            157     29          0    0.510000E+02    0.170000E+03    0.000000E+00         -1          0
            158     29          0    0.580000E+02    0.112000E+03    0.000000E+00         -1          0
            159     29          0    0.830000E+02    0.290000E+02    0.000000E+00         -1          0
            160     29          0    0.260000E+02    0.300000E+01    0.000000E+00         -1          0
            161     29          0    0.300000E+01    0.000000E+00    0.000000E+00         -1          0
            162     29          0    0.200000E+02   -0.200000E+02    0.000000E+00         -1          0
            163     30          0    0.510000E+02    0.170000E+03    0.000000E+00         -1          0
            164     30          0    0.580000E+02    0.112000E+03    0.000000E+00         -1          0
            165     30          0    0.830000E+02    0.290000E+02    0.000000E+00         -1          0
            166     30          0    0.260000E+02    0.300000E+01    0.000000E+00         -1          0
            167     30          0    0.300000E+01    0.000000E+00    0.000000E+00         -1          0
            168     30          0    0.200000E+02   -0.200000E+02    0.000000E+00         -1          0
            169     31          0    0.510000E+02    0.170000E+03    0.000000E+00         -1          0
            170     31          0    0.580000E+02    0.112000E+03    0.000000E+00         -1          0
            171     31          0    0.830000E+02    0.290000E+02    0.000000E+00         -1          0
            172     31          0    0.260000E+02    0.300000E+01    0.000000E+00         -1          0
            173     31          0    0.300000E+01    0.000000E+00    0.000000E+00         -1          0
            174     31          0    0.200000E+02   -0.200000E+02    0.000000E+00         -1          0
            175     32          0    0.510000E+02    0.170000E+03    0.000000E+00         -1          0
            176     32          0    0.580000E+02    0.112000E+03    0.000000E+00         -1          0
            177     32          0    0.830000E+02    0.290000E+02    0.000000E+00         -1          0
            178     32          0    0.260000E+02    0.300000E+01    0.000000E+00         -1          0
            179     32          0    0.300000E+01    0.000000E+00    0.000000E+00         -1          0
            180     32          0    0.200000E+02   -0.200000E+02    0.000000E+00         -1          0
            181     33          0    0.510000E+02    0.170000E+03    0.000000E+00         -1          0
            182     33          0    0.580000E+02    0.112000E+03    0.000000E+00         -1          0
            183     33          0    0.830000E+02    0.290000E+02    0.000000E+00         -1          0
            184     33          0    0.260000E+02    0.300000E+01    0.000000E+00         -1          0
            185     33          0    0.300000E+01    0.000000E+00    0.000000E+00         -1          0
            186     33          0    0.200000E+02   -0.200000E+02    0.000000E+00         -1          0
            187     34          0    0.510000E+02    0.170000E+03    0.000000E+00         -1          0
            188     34          0    0.580000E+02    0.112000E+03    0.000000E+00         -1          0
            189     34          0    0.830000E+02    0.290000E+02    0.000000E+00         -1          0
            190     34          0    0.260000E+02    0.300000E+01    0.000000E+00         -1          0
            191     34          0    0.300000E+01    0.000000E+00    0.000000E+00         -1          0
            192     34          0    0.200000E+02   -0.200000E+02    0.000000E+00         -1          0
            193     35          0    0.510000E+02    0.170000E+03    0.000000E+00         -1          0
            194     35          0    0.580000E+02    0.112000E+03    0.000000E+00         -1          0
            195     35          0    0.830000E+02    0.290000E+02    0.000000E+00         -1          0
            196     35          0    0.260000E+02    0.300000E+01    0.000000E+00         -1          0
            197     35          0    0.300000E+01    0.000000E+00    0.000000E+00         -1          0
            198     35          0    0.200000E+02   -0.200000E+02    0.000000E+00         -1          0
            199     36          0    0.510000E+02    0.170000E+03    0.000000E+00         -1          0
            200     36          0    0.580000E+02    0.112000E+03    0.000000E+00         -1          0
            201     36          0    0.830000E+02    0.290000E+02    0.000000E+00         -1          0
            202     36          0    0.260000E+02    0.300000E+01    0.000000E+00         -1          0
            203     36          0    0.300000E+01    0.000000E+00    0.000000E+00         -1          0
            204     36          0    0.200000E+02   -0.200000E+02    0.000000E+00         -1          0
            205     37          0    0.510000E+02    0.170000E+03    0.000000E+00         -1          0
            206     37          0    0.580000E+02    0.112000E+03    0.000000E+00         -1          0
            207     37          0    0.830000E+02    0.290000E+02    0.000000E+00         -1          0
            208     37          0    0.260000E+02    0.300000E+01    0.000000E+00         -1          0
            209     37          0    0.300000E+01    0.000000E+00    0.000000E+00         -1          0
            210     37          0    0.200000E+02   -0.200000E+02    0.000000E+00         -1          0
            211     38          0    0.510000E+02    0.170000E+03    0.000000E+00         -1          0
            212     38          0    0.580000E+02    0.112000E+03    0.000000E+00         -1          0
            213     38          0    0.830000E+02    0.290000E+02    0.000000E+00         -1          0
            214     38          0    0.260000E+02    0.300000E+01    0.000000E+00         -1          0
            215     38          0    0.300000E+01    0.000000E+00    0.000000E+00         -1          0
            216     38          0    0.200000E+02   -0.200000E+02    0.000000E+00         -1          0
            217     39          0    0.510000E+02    0.170000E+03    0.000000E+00         -1          0
            218     39          0    0.580000E+02    0.112000E+03    0.000000E+00         -1          0
            219     39          0    0.830000E+02    0.290000E+02    0.000000E+00         -1          0
            220     39          0    0.260000E+02    0.300000E+01    0.000000E+00         -1          0
            221     39          0    0.300000E+01    0.000000E+00    0.000000E+00         -1          0
            222     39          0    0.200000E+02   -0.200000E+02    0.000000E+00         -1          0
            223     40          0    0.510000E+02    0.170000E+03    0.000000E+00         -1          0
            224     40          0    0.580000E+02    0.112000E+03    0.000000E+00         -1          0
            225     40          0    0.830000E+02    0.290000E+02    0.000000E+00         -1          0
            226     40          0    0.260000E+02    0.300000E+01    0.000000E+00         -1          0
            227     40          0    0.300000E+01    0.000000E+00    0.000000E+00         -1          0
            228     40          0    0.200000E+02   -0.200000E+02    0.000000E+00         -1          0
            229     41          0    0.510000E+02    0.170000E+03    0.000000E+00         -1          0
            230     41          0    0.580000E+02    0.112000E+03    0.000000E+00         -1          0
            231     41          0    0.830000E+02    0.290000E+02    0.000000E+00         -1          0
            232     41          0    0.260000E+02    0.300000E+01    0.000000E+00         -1          0
            233     41          0    0.300000E+01    0.000000E+00    0.000000E+00         -1          0
            234     41          0    0.200000E+02   -0.200000E+02    0.000000E+00         -1          0
            235     42          0    0.510000E+02    0.170000E+03    0.000000E+00         -1          0
            236     42          0    0.580000E+02    0.112000E+03    0.000000E+00         -1          0
            237     42          0    0.830000E+02    0.290000E+02    0.000000E+00         -1          0
            238     42          0    0.260000E+02    0.300000E+01    0.000000E+00         -1          0
            239     42          0    0.300000E+01    0.000000E+00    0.000000E+00         -1          0
            240     42          0    0.200000E+02   -0.200000E+02    0.000000E+00         -1          0
            241     43          0    0.510000E+02    0.170000E+03    0.000000E+00         -1          0