                                  MODFLOW-USG      
      U.S. GEOLOGICAL SURVEY MODULAR FINITE-DIFFERENCE GROUNDWATER FLOW MODEL
                            VERSION 1.4.00 10/06/2017

 LIST FILE: DEN4Tc.lst
                         UNIT    7

 OPENING DEN4Tc.bas
 FILE TYPE:BAS6   UNIT    1   STATUS:OLD    
 FORMAT:FORMATTED              ACCESS:SEQUENTIAL          

 OPENING DEN4Tc.sms
 FILE TYPE:SMS   UNIT   19   STATUS:OLD    
 FORMAT:FORMATTED              ACCESS:SEQUENTIAL          

 OPENING DEN4Tc.dis
 FILE TYPE:DISU   UNIT   29   STATUS:OLD    
 FORMAT:FORMATTED              ACCESS:SEQUENTIAL          

 OPENING DEN4Tc.oc
 FILE TYPE:OC   UNIT   22   STATUS:OLD    
 FORMAT:FORMATTED              ACCESS:SEQUENTIAL          

 OPENING DEN4Tc.wel
 FILE TYPE:WEL   UNIT   63   STATUS:OLD    
 FORMAT:FORMATTED              ACCESS:SEQUENTIAL          

 OPENING DEN4Tc.drn
 FILE TYPE:DRN   UNIT   13   STATUS:OLD    
 FORMAT:FORMATTED              ACCESS:SEQUENTIAL          

 OPENING DEN4Tc.chd
 FILE TYPE:CHD   UNIT  199   STATUS:OLD    
 FORMAT:FORMATTED              ACCESS:SEQUENTIAL          

 OPENING DEN4Tc.lpf
 FILE TYPE:LPF   UNIT   11   STATUS:OLD    
 FORMAT:FORMATTED              ACCESS:SEQUENTIAL          

 OPENING DEN4Tc.cln
 FILE TYPE:CLN   UNIT  221   STATUS:OLD    
 FORMAT:FORMATTED              ACCESS:SEQUENTIAL          
#TIB  33 DEN4Tc.tib                                                                                                                                                                                                                                                                                         

 OPENING DEN4Tc_cln.hds
 FILE TYPE:DATA(BINARY)   UNIT   34   STATUS:UNKNOWN
 FORMAT:BINARY                 ACCESS:SEQUENTIAL          

 OPENING DEN4Tc.cbcln
 FILE TYPE:DATA(BINARY)   UNIT   24   STATUS:UNKNOWN
 FORMAT:BINARY                 ACCESS:SEQUENTIAL          

 OPENING DEN4Tc.cbb
 FILE TYPE:DATA(BINARY)   UNIT   50   STATUS:UNKNOWN
 FORMAT:BINARY                 ACCESS:SEQUENTIAL          

 OPENING DEN4Tc.hds
 FILE TYPE:DATA(BINARY)   UNIT   30   STATUS:UNKNOWN
 FORMAT:BINARY                 ACCESS:SEQUENTIAL          

 OPENING DEN4Tc.ddn
 FILE TYPE:DATA(BINARY)   UNIT   31   STATUS:UNKNOWN
 FORMAT:BINARY                 ACCESS:SEQUENTIAL          

 BAS -- BASIC PACKAGE-USG      1.4.00 10/06/2017                        INPUT READ FROM UNIT    1
 
 # MODFLOW-USGs Basic Package                                                    
 # MODFLOW Data Set Created by Groundwater Vistas                                
 #
 THE FREE FORMAT OPTION HAS BEEN SELECTED
 THE UNSTRUCTURED GRID OPTION HAS BEEN SELECTED

 DIS -- UNSTRUCTURED GRID DISCRETIZATION PACKAGE, VERSION 1 : 5/17/2010 - INPUT READ FROM UNIT   29
       9660 NODES        10 NLAY     64388 NJAG  VERT. SUBDISCRETIZATION INDEX, IVSD = -1
 INDEX FOR INPUT OF UNSTRUCTURED, FINITE-VOLUME CONNECTIVITY INFORMATION, IDSYMRD =   0
    4 STRESS PERIOD(S) IN SIMULATION
 MODEL TIME UNIT IS DAYS
 MODEL LENGTH UNIT IS METERS
  Confining bed flag for each layer:
   0   0   0   0   0   0   0   0   0   0

 CLN -- CONNECTED LINE NETWORK DISCRETIZATION PROCESS, VERSION 1, 3/3/2012 INPUT READ FROM UNIT  221
 FLAG (0) OR MAXIMUM NUMBER OF LINEAR NODES (NCLN) =     66
 FLAG (-VE) OR NUMBER OF LINEAR NODES (+VE) (ICLNNDS) =   -378
 NUMBER OF LINEAR NODE TO MATRIX GRID CONNECTIONS (NCLNGWC) =    378

 CELL-BY-CELL FLOWS WILL BE SAVED ON UNIT    24(FLAG ICLNCB IS GREATER THAN ZERO)
 CLN HEAD OUTPUT WILL BE SAVED ON UNIT   34(FLAG ICLNHD IS GREATER THAN ZERO)
 CLN DDN OUTPUT WILL NOT BE SAVED OR PRINTED (FLAG ICLNDD IS EQUAL TO ZERO)
 CLN IBOUND OUTPUT WILL NOT BE SAVED OR PRINTED (FLAG ICLNIB IS EQUAL TO ZERO)



              NODES PER CLN SEGMENT
 READING ON UNIT  221 WITH FORMAT: (FREE)              
         5         5         5         5         5         5         6         6
         6         6         6         6         6         6         6         6
         6         6         6         6         6         6         5         5
         5         5         5         5         6         6         6         6
         6         6         6         6         6         6         6         6
         6         6         6         6         5         5         5         5
         5         5         6         6         6         6         6         6
         6         6         6         6         6         6         6         6
         6         6

                     CONNECTED LINE NETWORK INFORMATION
                    ----------------------------------------
     CLN-NODE NO. CLNTYP ORIENTATION  CLN LENGTH    BOT ELEVATION         FANGLE         IFLIN           ICCWADI
     -----------  ------ ----------- -----------    -------------    -----------        ------    -------

                     CLN TO 3-D GRID CONNECTION INFORMATION
                    ----------------------------------------
     F-NODE NO. GW-NODE NO  EQTN. TYPE        FSKIN           FLENG         FANISO   ICGWADI
     ---------- ---------- -----------     ----------- ----------------- ---------------   ----------
              1       4588           0    0.000000E+00    0.580000E+02    0.100000E+01         0
              2       5554           0    0.000000E+00    0.830000E+02    0.100000E+01         0
              3       6520           0    0.000000E+00    0.260000E+02    0.100000E+01         0
              4       7486           0    0.000000E+00    0.300000E+01    0.100000E+01         0
              5       8452           0    0.000000E+00    0.200000E+02    0.100000E+01         0
              6       4565           0    0.000000E+00    0.580000E+02    0.100000E+01         0
              7       5531           0    0.000000E+00    0.830000E+02    0.100000E+01         0
              8       6497           0    0.000000E+00    0.260000E+02    0.100000E+01         0
              9       7463           0    0.000000E+00    0.300000E+01    0.100000E+01         0
             10       8429           0    0.000000E+00    0.200000E+02    0.100000E+01         0
             11       4542           0    0.000000E+00    0.580000E+02    0.100000E+01         0
             12       5508           0    0.000000E+00    0.830000E+02    0.100000E+01         0
             13       6474           0    0.000000E+00    0.260000E+02    0.100000E+01         0
             14       7440           0    0.000000E+00    0.300000E+01    0.100000E+01         0
             15       8406           0    0.000000E+00    0.200000E+02    0.100000E+01         0
             16       4519           0    0.000000E+00    0.580000E+02    0.100000E+01         0
             17       5485           0    0.000000E+00    0.830000E+02    0.100000E+01         0
             18       6451           0    0.000000E+00    0.260000E+02    0.100000E+01         0
             19       7417           0    0.000000E+00    0.300000E+01    0.100000E+01         0
             20       8383           0    0.000000E+00    0.200000E+02    0.100000E+01         0
             21       4496           0    0.000000E+00    0.580000E+02    0.100000E+01         0
             22       5462           0    0.000000E+00    0.830000E+02    0.100000E+01         0
             23       6428           0    0.000000E+00    0.260000E+02    0.100000E+01         0
             24       7394           0    0.000000E+00    0.300000E+01    0.100000E+01         0
             25       8360           0    0.000000E+00    0.200000E+02    0.100000E+01         0
             26       4473           0    0.000000E+00    0.580000E+02    0.100000E+01         0
             27       5439           0    0.000000E+00    0.830000E+02    0.100000E+01         0
             28       6405           0    0.000000E+00    0.260000E+02    0.100000E+01         0
             29       7371           0    0.000000E+00    0.300000E+01    0.100000E+01         0
             30       8337           0    0.000000E+00    0.200000E+02    0.100000E+01         0
             31       3484           0    0.000000E+00    0.510000E+02    0.100000E+01         0
             32       4450           0    0.000000E+00    0.580000E+02    0.100000E+01         0
             33       5416           0    0.000000E+00    0.830000E+02    0.100000E+01         0
             34       6382           0    0.000000E+00    0.260000E+02    0.100000E+01         0
             35       7348           0    0.000000E+00    0.300000E+01    0.100000E+01         0
             36       8314           0    0.000000E+00    0.200000E+02    0.100000E+01         0
             37       3461           0    0.000000E+00    0.510000E+02    0.100000E+01         0
             38       4427           0    0.000000E+00    0.580000E+02    0.100000E+01         0
             39       5393           0    0.000000E+00    0.830000E+02    0.100000E+01         0
             40       6359           0    0.000000E+00    0.260000E+02    0.100000E+01         0
             41       7325           0    0.000000E+00    0.300000E+01    0.100000E+01         0
             42       8291           0    0.000000E+00    0.200000E+02    0.100000E+01         0
             43       3438           0    0.000000E+00    0.510000E+02    0.100000E+01         0
             44       4404           0    0.000000E+00    0.580000E+02    0.100000E+01         0
             45       5370           0    0.000000E+00    0.830000E+02    0.100000E+01         0
             46       6336           0    0.000000E+00    0.260000E+02    0.100000E+01         0
             47       7302           0    0.000000E+00    0.300000E+01    0.100000E+01         0
             48       8268           0    0.000000E+00    0.200000E+02    0.100000E+01         0
             49       3415           0    0.000000E+00    0.510000E+02    0.100000E+01         0
             50       4381           0    0.000000E+00    0.580000E+02    0.100000E+01         0
             51       5347           0    0.000000E+00    0.830000E+02    0.100000E+01         0
             52       6313           0    0.000000E+00    0.260000E+02    0.100000E+01         0
             53       7279           0    0.000000E+00    0.300000E+01    0.100000E+01         0
             54       8245           0    0.000000E+00    0.200000E+02    0.100000E+01         0
             55       3392           0    0.000000E+00    0.510000E+02    0.100000E+01         0
             56       4358           0    0.000000E+00    0.580000E+02    0.100000E+01         0
             57       5324           0    0.000000E+00    0.830000E+02    0.100000E+01         0
             58       6290           0    0.000000E+00    0.260000E+02    0.100000E+01         0
             59       7256           0    0.000000E+00    0.300000E+01    0.100000E+01         0
             60       8222           0    0.000000E+00    0.200000E+02    0.100000E+01         0
             61       3369           0    0.000000E+00    0.510000E+02    0.100000E+01         0
             62       4335           0    0.000000E+00    0.580000E+02    0.100000E+01         0
             63       5301           0    0.000000E+00    0.830000E+02    0.100000E+01         0
             64       6267           0    0.000000E+00    0.260000E+02    0.100000E+01         0
             65       7233           0    0.000000E+00    0.300000E+01    0.100000E+01         0
             66       8199           0    0.000000E+00    0.200000E+02    0.100000E+01         0
             67       3346           0    0.000000E+00    0.510000E+02    0.100000E+01         0
             68       4312           0    0.000000E+00    0.580000E+02    0.100000E+01         0
             69       5278           0    0.000000E+00    0.830000E+02    0.100000E+01         0
             70       6244           0    0.000000E+00    0.260000E+02    0.100000E+01         0
             71       7210           0    0.000000E+00    0.300000E+01    0.100000E+01         0
             72       8176           0    0.000000E+00    0.200000E+02    0.100000E+01         0
             73       3323           0    0.000000E+00    0.510000E+02    0.100000E+01         0
             74       4289           0    0.000000E+00    0.580000E+02    0.100000E+01         0
             75       5255           0    0.000000E+00    0.830000E+02    0.100000E+01         0
             76       6221           0    0.000000E+00    0.260000E+02    0.100000E+01         0
             77       7187           0    0.000000E+00    0.300000E+01    0.100000E+01         0
             78       8153           0    0.000000E+00    0.200000E+02    0.100000E+01         0
             79       3300           0    0.000000E+00    0.510000E+02    0.100000E+01         0
             80       4266           0    0.000000E+00    0.580000E+02    0.100000E+01         0
             81       5232           0    0.000000E+00    0.830000E+02    0.100000E+01         0
             82       6198           0    0.000000E+00    0.260000E+02    0.100000E+01         0
             83       7164           0    0.000000E+00    0.300000E+01    0.100000E+01         0
             84       8130           0    0.000000E+00    0.200000E+02    0.100000E+01         0
             85       3277           0    0.000000E+00    0.510000E+02    0.100000E+01         0
             86       4243           0    0.000000E+00    0.580000E+02    0.100000E+01         0
             87       5209           0    0.000000E+00    0.830000E+02    0.100000E+01         0
             88       6175           0    0.000000E+00    0.260000E+02    0.100000E+01         0
             89       7141           0    0.000000E+00    0.300000E+01    0.100000E+01         0
             90       8107           0    0.000000E+00    0.200000E+02    0.100000E+01         0
             91       3254           0    0.000000E+00    0.510000E+02    0.100000E+01         0
             92       4220           0    0.000000E+00    0.580000E+02    0.100000E+01         0
             93       5186           0    0.000000E+00    0.830000E+02    0.100000E+01         0
             94       6152           0    0.000000E+00    0.260000E+02    0.100000E+01         0
             95       7118           0    0.000000E+00    0.300000E+01    0.100000E+01         0
             96       8084           0    0.000000E+00    0.200000E+02    0.100000E+01         0
             97       3231           0    0.000000E+00    0.510000E+02    0.100000E+01         0
             98       4197           0    0.000000E+00    0.580000E+02    0.100000E+01         0
             99       5163           0    0.000000E+00    0.830000E+02    0.100000E+01         0
            100       6129           0    0.000000E+00    0.260000E+02    0.100000E+01         0
            101       7095           0    0.000000E+00    0.300000E+01    0.100000E+01         0
            102       8061           0    0.000000E+00    0.200000E+02    0.100000E+01         0
            103       3208           0    0.000000E+00    0.510000E+02    0.100000E+01         0
            104       4174           0    0.000000E+00    0.580000E+02    0.100000E+01         0
            105       5140           0    0.000000E+00    0.830000E+02    0.100000E+01         0
            106       6106           0    0.000000E+00    0.260000E+02    0.100000E+01         0
            107       7072           0    0.000000E+00    0.300000E+01    0.100000E+01         0
            108       8038           0    0.000000E+00    0.200000E+02    0.100000E+01         0
            109       3185           0    0.000000E+00    0.510000E+02    0.100000E+01         0
            110       4151           0    0.000000E+00    0.580000E+02    0.100000E+01         0
            111       5117           0    0.000000E+00    0.830000E+02    0.100000E+01         0
            112       6083           0    0.000000E+00    0.260000E+02    0.100000E+01         0
            113       7049           0    0.000000E+00    0.300000E+01    0.100000E+01         0
            114       8015           0    0.000000E+00    0.200000E+02    0.100000E+01         0
            115       3162           0    0.000000E+00    0.510000E+02    0.100000E+01         0
            116       4128           0    0.000000E+00    0.580000E+02    0.100000E+01         0
            117       5094           0    0.000000E+00    0.830000E+02    0.100000E+01         0
            118       6060           0    0.000000E+00    0.260000E+02    0.100000E+01         0
            119       7026           0    0.000000E+00    0.300000E+01    0.100000E+01         0
            120       7992           0    0.000000E+00    0.200000E+02    0.100000E+01         0
            121       3139           0    0.000000E+00    0.510000E+02    0.100000E+01         0
            122       4105           0    0.000000E+00    0.580000E+02    0.100000E+01         0
            123       5071           0    0.000000E+00    0.830000E+02    0.100000E+01         0
            124       6037           0    0.000000E+00    0.260000E+02    0.100000E+01         0
            125       7003           0    0.000000E+00    0.300000E+01    0.100000E+01         0
            126       7969           0    0.000000E+00    0.200000E+02    0.100000E+01         0
            127       4589           0    0.000000E+00    0.580000E+02    0.100000E+01         0
            128       5555           0    0.000000E+00    0.830000E+02    0.100000E+01         0
            129       6521           0    0.000000E+00    0.260000E+02    0.100000E+01         0
            130       7487           0    0.000000E+00    0.300000E+01    0.100000E+01         0
            131       8453           0    0.000000E+00    0.200000E+02    0.100000E+01         0
            132       4566           0    0.000000E+00    0.580000E+02    0.100000E+01         0
            133       5532           0    0.000000E+00    0.830000E+02    0.100000E+01         0
            134       6498           0    0.000000E+00    0.260000E+02    0.100000E+01         0
            135       7464           0    0.000000E+00    0.300000E+01    0.100000E+01         0
            136       8430           0    0.000000E+00    0.200000E+02    0.100000E+01         0
            137       4543           0    0.000000E+00    0.580000E+02    0.100000E+01         0
            138       5509           0    0.000000E+00    0.830000E+02    0.100000E+01         0
            139       6475           0    0.000000E+00    0.260000E+02    0.100000E+01         0
            140       7441           0    0.000000E+00    0.300000E+01    0.100000E+01         0
            141       8407           0    0.000000E+00    0.200000E+02    0.100000E+01         0
            142       4520           0    0.000000E+00    0.580000E+02    0.100000E+01         0
            143       5486           0    0.000000E+00    0.830000E+02    0.100000E+01         0
            144       6452           0    0.000000E+00    0.260000E+02    0.100000E+01         0
            145       7418           0    0.000000E+00    0.300000E+01    0.100000E+01         0
            146       8384           0    0.000000E+00    0.200000E+02    0.100000E+01         0
            147       4497           0    0.000000E+00    0.580000E+02    0.100000E+01         0
            148       5463           0    0.000000E+00    0.830000E+02    0.100000E+01         0
            149       6429           0    0.000000E+00    0.260000E+02    0.100000E+01         0
            150       7395           0    0.000000E+00    0.300000E+01    0.100000E+01         0
            151       8361           0    0.000000E+00    0.200000E+02    0.100000E+01         0
            152       4474           0    0.000000E+00    0.580000E+02    0.100000E+01         0
            153       5440           0    0.000000E+00    0.830000E+02    0.100000E+01         0
            154       6406           0    0.000000E+00    0.260000E+02    0.100000E+01         0
            155       7372           0    0.000000E+00    0.300000E+01    0.100000E+01         0
            156       8338           0    0.000000E+00    0.200000E+02    0.100000E+01         0
            157       3485           0    0.000000E+00    0.510000E+02    0.100000E+01         0
            158       4451           0    0.000000E+00    0.580000E+02    0.100000E+01         0
            159       5417           0    0.000000E+00    0.830000E+02    0.100000E+01         0
            160       6383           0    0.000000E+00    0.260000E+02    0.100000E+01         0
            161       7349           0    0.000000E+00    0.300000E+01    0.100000E+01         0
            162       8315           0    0.000000E+00    0.200000E+02    0.100000E+01         0
            163       3462           0    0.000000E+00    0.510000E+02    0.100000E+01         0
            164       4428           0    0.000000E+00    0.580000E+02    0.100000E+01         0
            165       5394           0    0.000000E+00    0.830000E+02    0.100000E+01         0
            166       6360           0    0.000000E+00    0.260000E+02    0.100000E+01         0
            167       7326           0    0.000000E+00    0.300000E+01    0.100000E+01         0
            168       8292           0    0.000000E+00    0.200000E+02    0.100000E+01         0
            169       3439           0    0.000000E+00    0.510000E+02    0.100000E+01         0
            170       4405           0    0.000000E+00    0.580000E+02    0.100000E+01         0
            171       5371           0    0.000000E+00    0.830000E+02    0.100000E+01         0
            172       6337           0    0.000000E+00    0.260000E+02    0.100000E+01         0
            173       7303           0    0.000000E+00    0.300000E+01    0.100000E+01         0
            174       8269           0    0.000000E+00    0.200000E+02    0.100000E+01         0
            175       3416           0    0.000000E+00    0.510000E+02    0.100000E+01         0
            176       4382           0    0.000000E+00    0.580000E+02    0.100000E+01         0
            177       5348           0    0.000000E+00    0.830000E+02    0.100000E+01         0
            178       6314           0    0.000000E+00    0.260000E+02    0.100000E+01         0
            179       7280           0    0.000000E+00    0.300000E+01    0.100000E+01         0
            180       8246           0    0.000000E+00    0.200000E+02    0.100000E+01         0
            181       3393           0    0.000000E+00    0.510000E+02    0.100000E+01         0
            182       4359           0    0.000000E+00    0.580000E+02    0.100000E+01         0
            183       5325           0    0.000000E+00    0.830000E+02    0.100000E+01         0
            184       6291           0    0.000000E+00    0.260000E+02    0.100000E+01         0
            185       7257           0    0.000000E+00    0.300000E+01    0.100000E+01         0
            186       8223           0    0.000000E+00    0.200000E+02    0.100000E+01         0
            187       3370           0    0.000000E+00    0.510000E+02    0.100000E+01         0
            188       4336           0    0.000000E+00    0.580000E+02    0.100000E+01         0
            189       5302           0    0.000000E+00    0.830000E+02    0.100000E+01         0
            190       6268           0    0.000000E+00    0.260000E+02    0.100000E+01         0
            191       7234           0    0.000000E+00    0.300000E+01    0.100000E+01         0
            192       8200           0    0.000000E+00    0.200000E+02    0.100000E+01         0
            193       3347           0    0.000000E+00    0.510000E+02    0.100000E+01         0
            194       4313           0    0.000000E+00    0.580000E+02    0.100000E+01         0
            195       5279           0    0.000000E+00    0.830000E+02    0.100000E+01         0
            196       6245           0    0.000000E+00    0.260000E+02    0.100000E+01         0
            197       7211           0    0.000000E+00    0.300000E+01    0.100000E+01         0
            198       8177           0    0.000000E+00    0.200000E+02    0.100000E+01         0
            199       3324           0    0.000000E+00    0.510000E+02    0.100000E+01         0
            200       4290           0    0.000000E+00    0.580000E+02    0.100000E+01         0
            201       5256           0    0.000000E+00    0.830000E+02    0.100000E+01         0
            202       6222           0    0.000000E+00    0.260000E+02    0.100000E+01         0
            203       7188           0    0.000000E+00    0.300000E+01    0.100000E+01         0
            204       8154           0    0.000000E+00    0.200000E+02    0.100000E+01         0
            205       3301           0    0.000000E+00    0.510000E+02    0.100000E+01         0
            206       4267           0    0.000000E+00    0.580000E+02    0.100000E+01         0
            207       5233           0    0.000000E+00    0.830000E+02    0.100000E+01         0
            208       6199           0    0.000000E+00    0.260000E+02    0.100000E+01         0
            209       7165           0    0.000000E+00    0.300000E+01    0.100000E+01         0
            210       8131           0    0.000000E+00    0.200000E+02    0.100000E+01         0
            211       3278           0    0.000000E+00    0.510000E+02    0.100000E+01         0
            212       4244           0    0.000000E+00    0.580000E+02    0.100000E+01         0
            213       5210           0    0.000000E+00    0.830000E+02    0.100000E+01         0
            214       6176           0    0.000000E+00    0.260000E+02    0.100000E+01         0
            215       7142           0    0.000000E+00    0.300000E+01    0.100000E+01         0
            216       8108           0    0.000000E+00    0.200000E+02    0.100000E+01         0
            217       3255           0    0.000000E+00    0.510000E+02    0.100000E+01         0
            218       4221           0    0.000000E+00    0.580000E+02    0.100000E+01         0
            219       5187           0    0.000000E+00    0.830000E+02    0.100000E+01         0
            220       6153           0    0.000000E+00    0.260000E+02    0.100000E+01         0
            221       7119           0    0.000000E+00    0.300000E+01    0.100000E+01         0
            222       8085           0    0.000000E+00    0.200000E+02    0.100000E+01         0
            223       3232           0    0.000000E+00    0.510000E+02    0.100000E+01         0
            224       4198           0    0.000000E+00    0.580000E+02    0.100000E+01         0
            225       5164           0    0.000000E+00    0.830000E+02    0.100000E+01         0
            226       6130           0    0.000000E+00    0.260000E+02    0.100000E+01         0
            227       7096           0    0.000000E+00    0.300000E+01    0.100000E+01         0
            228       8062           0    0.000000E+00    0.200000E+02    0.100000E+01         0
            229       3209           0    0.000000E+00    0.510000E+02    0.100000E+01         0
            230       4175           0    0.000000E+00    0.580000E+02    0.100000E+01         0
            231       5141           0    0.000000E+00    0.830000E+02    0.100000E+01         0
            232       6107           0    0.000000E+00    0.260000E+02    0.100000E+01         0
            233       7073           0    0.000000E+00    0.300000E+01    0.100000E+01         0
            234       8039           0    0.000000E+00    0.200000E+02    0.100000E+01         0
            235       3186           0    0.000000E+00    0.510000E+02    0.100000E+01         0
            236       4152           0    0.000000E+00    0.580000E+02    0.100000E+01         0
            237       5118           0    0.000000E+00    0.830000E+02    0.100000E+01         0
            238       6084           0    0.000000E+00    0.260000E+02    0.100000E+01         0
            239       7050           0    0.000000E+00    0.300000E+01    0.100000E+01         0
            240       8016           0    0.000000E+00    0.200000E+02    0.100000E+01         0
            241       3163           0    0.000000E+00    0.510000E+02    0.100000E+01         0
            242       4129           0    0.000000E+00    0.580000E+02    0.100000E+01         0
            243       5095           0    0.000000E+00    0.830000E+02    0.100000E+01         0
            244       6061           0    0.000000E+00    0.260000E+02    0.100000E+01         0
            245       7027           0    0.000000E+00    0.300000E+01    0.100000E+01         0
            246       7993           0    0.000000E+00    0.200000E+02    0.100000E+01         0
            247       3140           0    0.000000E+00    0.510000E+02    0.100000E+01         0
            248       4106           0    0.000000E+00    0.580000E+02    0.100000E+01         0
            249       5072           0    0.000000E+00    0.830000E+02    0.100000E+01         0
            250       6038           0    0.000000E+00    0.260000E+02    0.100000E+01         0
            251       7004           0    0.000000E+00    0.300000E+01    0.100000E+01         0
            252       7970           0    0.000000E+00    0.200000E+02    0.100000E+01         0
            253       4590           0    0.000000E+00    0.580000E+02    0.100000E+01         0
            254       5556           0    0.000000E+00    0.830000E+02    0.100000E+01         0
            255       6522           0    0.000000E+00    0.260000E+02    0.100000E+01         0
            256       7488           0    0.000000E+00    0.300000E+01    0.100000E+01         0