# MODFLOW2000 Well Package
PARAMETER  0  0
         1        50   AUX IFACE
         1         0               Stress Period 1
         2         6         6-500.00000         0
