# MODFLOW2000 Basic Package
#MODFLOW Data Set Created by Groundwater Vistas
#   
SHOWPROGRESS 
         0         1(25I3)                      -1     IBOUND Layer   1
         0         1(25I3)                      -1     IBOUND Layer   2
         0         1(25I3)                      -1     IBOUND Layer   3
9.9900e+02
         0  90.00000(10e12.4)                   -1     STARTING HEADS Layer   1
         0  90.00000(10e12.4)                   -1     STARTING HEADS Layer   2
         0  90.00000(10e12.4)                   -1     STARTING HEADS Layer   3
