# MODFLOW2000 Discretization File
 5  110  176  1  4  0
 0 0 0 0 0
        38     1.000(10E12.4)                    0     DELTA-X or C
  1.0000e+03  1.0000e+03  1.0000e+03  1.0000e+03  1.0000e+03  1.0000e+03  1.0000e+03  1.0000e+03  1.0000e+03  1.0000e+03
  1.0000e+03  1.0000e+03  1.0000e+03  1.5625e+03  1.0125e+03  6.7500e+02  4.5000e+02  3.0000e+02  2.0000e+02  2.0000e+02
  2.0000e+02  2.0000e+02  2.0000e+02  2.0000e+02  2.0000e+02  2.0000e+02  2.0000e+02  2.0000e+02  2.0000e+02  2.0000e+02
  2.0000e+02  2.0000e+02  2.0000e+02  2.0000e+02  2.0000e+02  2.0000e+02  2.0000e+02  2.0000e+02  2.0000e+02  2.0000e+02
  2.0000e+02  2.0000e+02  2.0000e+02  2.0000e+02  2.0000e+02  2.0000e+02  2.0000e+02  2.0000e+02  2.0000e+02  2.0000e+02
  2.0000e+02  2.0000e+02  2.0000e+02  2.0000e+02  2.0000e+02  2.0000e+02  2.0000e+02  2.0000e+02  2.0000e+02  2.0000e+02
  2.0000e+02  2.0000e+02  2.0000e+02  2.0000e+02  2.0000e+02  2.0000e+02  2.0000e+02  2.0000e+02  2.0000e+02  2.0000e+02
  2.0000e+02  2.0000e+02  2.0000e+02  2.0000e+02  2.0000e+02  2.0000e+02  2.0000e+02  2.0000e+02  2.0000e+02  2.0000e+02
  2.0000e+02  2.0000e+02  2.0000e+02  2.0000e+02  2.0000e+02  2.0000e+02  2.0000e+02  2.0000e+02  2.0000e+02  2.0000e+02
  2.0000e+02  2.0000e+02  2.0000e+02  2.0000e+02  2.0000e+02  2.0000e+02  2.0000e+02  2.0000e+02  2.0000e+02  2.0000e+02
  2.0000e+02  2.0000e+02  2.0000e+02  2.0000e+02  2.0000e+02  2.0000e+02  2.0000e+02  2.0000e+02  2.0000e+02  2.0000e+02
  2.0000e+02  2.0000e+02  2.0000e+02  2.0000e+02  2.0000e+02  2.0000e+02  2.0000e+02  2.0000e+02  2.0000e+02  2.0000e+02
  2.0000e+02  2.0000e+02  2.0000e+02  2.0000e+02  2.0000e+02  2.0000e+02  2.0000e+02  2.0000e+02  2.0000e+02  2.0000e+02
  2.0000e+02  2.0000e+02  2.0000e+02  2.0000e+02  2.0000e+02  2.0000e+02  2.0000e+02  2.0000e+02  2.0000e+02  2.0000e+02
  2.0000e+02  3.0000e+02  4.5000e+02  6.5000e+02  9.7500e+02  1.0250e+03  1.0000e+03  1.0000e+03  1.0000e+03  1.0000e+03
  1.0000e+03  1.0000e+03  1.0000e+03  1.0000e+03  1.0000e+03  1.0000e+03  1.0000e+03  1.0000e+03  1.0000e+03  1.0000e+03
  1.0000e+03  1.0000e+03  1.0000e+03  1.0000e+03  1.0000e+03  1.0000e+03  1.0000e+03  1.0000e+03  1.0000e+03  1.0000e+03
  1.0000e+03  1.0000e+03  1.0000e+03  1.0000e+03  1.0000e+03  1.0000e+03
        38     1.000(10E12.4)                    0     DELTA-Y or R
  1.0000e+03  1.0000e+03  1.0000e+03  1.0000e+03  1.0625e+03  7.1875e+02  5.0625e+02  3.3750e+02  2.2500e+02  1.5000e+02
  1.0000e+02  1.0000e+02  1.0000e+02  1.0000e+02  1.0000e+02  1.0000e+02  1.0000e+02  1.0000e+02  1.0000e+02  1.0000e+02
  1.0000e+02  1.0000e+02  1.0000e+02  1.0000e+02  1.0000e+02  1.0000e+02  1.0000e+02  1.0000e+02  1.0000e+02  1.0000e+02
  1.0000e+02  1.0000e+02  1.0000e+02  1.0000e+02  1.0000e+02  1.0000e+02  1.0000e+02  1.0000e+02  1.0000e+02  1.0000e+02
  1.0000e+02  1.0000e+02  1.0000e+02  1.0000e+02  1.0000e+02  1.0000e+02  1.0000e+02  1.0000e+02  1.0000e+02  1.0000e+02
  1.0000e+02  1.0000e+02  1.0000e+02  1.0000e+02  1.0000e+02  1.0000e+02  1.0000e+02  1.0000e+02  1.0000e+02  1.0000e+02
  1.0000e+02  1.0000e+02  1.0000e+02  1.0000e+02  1.0000e+02  1.0000e+02  1.0000e+02  1.0000e+02  1.0000e+02  1.0000e+02
  1.0000e+02  1.0000e+02  1.0000e+02  1.0000e+02  1.0000e+02  1.0000e+02  1.0000e+02  1.0000e+02  1.0000e+02  1.0000e+02
  1.0000e+02  1.0000e+02  1.0000e+02  1.0000e+02  1.0000e+02  1.0000e+02  1.0000e+02  1.0000e+02  1.0000e+02  1.0000e+02
  1.0000e+02  1.0000e+02  1.0000e+02  1.0000e+02  1.0000e+02  1.0000e+02  1.0000e+02  1.0000e+02  1.5000e+02  2.2500e+02
  3.3750e+02  4.8750e+02  7.3125e+02  1.0969e+03  1.1719e+03  1.0000e+03  1.0000e+03  1.0000e+03  1.0000e+03  1.0000e+03
        38     1.000(10e12.4)                   -1     TOP of Model
  3.0000e+03  3.0000e+03  3.0000e+03  3.0000e+03  3.0000e+03  3.0000e+03  3.0000e+03  3.0000e+03  3.0000e+03  3.0000e+03
  3.0000e+03  3.0000e+03  3.0000e+03  3.0000e+03  3.0000e+03  3.0000e+03  3.0000e+03  3.0000e+03  3.0000e+03  3.0000e+03
  3.0000e+03  3.0000e+03  3.0000e+03  3.0000e+03  3.0000e+03  3.0000e+03  3.0000e+03  3.0000e+03  3.0000e+03  3.0000e+03
  3.0000e+03  3.0000e+03  3.0000e+03  3.0000e+03  3.0000e+03  3.0000e+03  3.0000e+03  3.0000e+03  3.0000e+03  3.0000e+03
  3.0000e+03  3.0000e+03  3.0000e+03  3.0000e+03  3.0000e+03  3.0000e+03  3.0000e+03  3.0000e+03  3.0000e+03  3.0000e+03
  3.0000e+03  3.0000e+03  3.0000e+03  3.0000e+03  3.0000e+03  3.0000e+03  3.0000e+03  3.0000e+03  3.0000e+03  3.0000e+03
  3.0000e+03  3.0000e+03  3.0000e+03  3.0000e+03  3.0000e+03  3.0000e+03  3.0000e+03  3.0000e+03  3.0000e+03  3.0000e+03
  3.0000e+03  3.0000e+03  3.0000e+03  3.0000e+03  3.0000e+03  3.0000e+03  3.0000e+03  3.0000e+03  3.0000e+03  3.0000e+03
  3.0000e+03  3.0000e+03  3.0000e+03  3.0000e+03  3.0000e+03  3.0000e+03  3.0000e+03  3.0000e+03  3.0000e+03  3.0000e+03
  3.0000e+03  3.0000e+03  3.0000e+03  3.0000e+03  3.0000e+03  3.0000e+03  3.0000e+03  3.0000e+03  3.0000e+03  3.0000e+03
  3.0000e+03  3.0000e+03  3.0000e+03  3.0000e+03  3.0000e+03  3.0000e+03  3.0000e+03  3.0000e+03  3.0000e+03  3.0000e+03
  3.0000e+03  3.0000e+03  3.0000e+03  3.0000e+03  3.0000e+03  3.0000e+03  3.0000e+03  3.0000e+03  3.0000e+03  3.0000e+03
  3.0000e+03  3.0000e+03  3.0000e+03  3.0000e+03  3.0000e+03  3.0000e+03  3.0000e+03  3.0000e+03  3.0000e+03  3.0000e+03
  3.0000e+03  3.0000e+03  3.0000e+03  3.0000e+03  3.0000e+03  3.0000e+03  3.0000e+03  3.0000e+03  3.0000e+03  3.0000e+03
  3.0000e+03  3.0000e+03  3.0000e+03  3.0000e+03  3.0000e+03  3.0000e+03  3.0000e+03  3.0000e+03  3.0000e+03  3.0000e+03
  3.0000e+03  3.0000e+03  3.0000e+03  3.0000e+03  3.0000e+03  3.0000e+03  3.0000e+03  3.0000e+03  3.0000e+03  3.0000e+03
  3.0000e+03  3.0000e+03  3.0000e+03  3.0000e+03  3.0000e+03  3.0000e+03  3.0000e+03  3.0000e+03  3.0000e+03  3.0000e+03
  3.0000e+03  3.0000e+03  3.0000e+03  3.0000e+03  3.0000e+03  3.0000e+03
  3.0000e+03  3.0000e+03  3.0000e+03  3.0000e+03  3.0000e+03  3.0000e+03  3.0000e+03  3.0000e+03  3.0000e+03  3.0000e+03
  3.0000e+03  3.0000e+03  3.0000e+03  3.0000e+03  3.0000e+03  3.0000e+03  3.0000e+03  3.0000e+03  3.0000e+03  3.0000e+03
  3.0000e+03  3.0000e+03  3.0000e+03  3.0000e+03  3.0000e+03  3.0000e+03  3.0000e+03  3.0000e+03  3.0000e+03  3.0000e+03
  3.0000e+03  3.0000e+03  3.0000e+03  3.0000e+03  3.0000e+03  3.0000e+03  3.0000e+03  3.0000e+03  3.0000e+03  3.0000e+03
  3.0000e+03  3.0000e+03  3.0000e+03  3.0000e+03  3.0000e+03  3.0000e+03  3.0000e+03  3.0000e+03  3.0000e+03  3.0000e+03
  3.0000e+03  3.0000e+03  3.0000e+03  3.0000e+03  3.0000e+03  3.0000e+03  3.0000e+03  3.0000e+03  3.0000e+03  3.0000e+03
  3.0000e+03  3.0000e+03  3.0000e+03  3.0000e+03  3.0000e+03  3.0000e+03  3.0000e+03  3.0000e+03  3.0000e+03  3.0000e+03
  3.0000e+03  3.0000e+03  3.0000e+03  3.0000e+03  3.0000e+03  3.0000e+03  3.0000e+03  3.0000e+03  3.0000e+03  3.0000e+03
  3.0000e+03  3.0000e+03  3.0000e+03  3.0000e+03  3.0000e+03  3.0000e+03  3.0000e+03  3.0000e+03  3.0000e+03  3.0000e+03
  3.0000e+03  3.0000e+03  3.0000e+03  3.0000e+03  3.0000e+03  3.0000e+03  3.0000e+03  3.0000e+03  3.0000e+03  3.0000e+03
  3.0000e+03  3.0000e+03  3.0000e+03  3.0000e+03  3.0000e+03  3.0000e+03  3.0000e+03  3.0000e+03  3.0000e+03  3.0000e+03
  3.0000e+03  3.0000e+03  3.0000e+03  3.0000e+03  3.0000e+03  3.0000e+03  3.0000e+03  3.0000e+03  3.0000e+03  3.0000e+03
  3.0000e+03  3.0000e+03  3.0000e+03  1.2780e+03  1.2770e+03  1.2740e+03  1.2630e+03  1.2600e+03  1.2570e+03  1.2550e+03
  1.2530e+03  1.2520e+03  1.2540e+03  1.2480e+03  1.2470e+03  1.2440e+03  1.2430e+03  1.2420e+03  1.2400e+03  1.2360e+03
  1.2350e+03  1.2320e+03  1.2290e+03  1.2250e+03  1.2010e+03  1.1800e+03  1.1670e+03  1.1600e+03  1.1480e+03  1.1320e+03
  1.1230e+03  1.1230e+03  1.1090e+03  1.0960e+03  1.0710e+03  1.0630e+03  1.0620e+03  1.0650e+03  1.0580e+03  1.0520e+03
  1.0430e+03  1.0360e+03  1.0300e+03  9.8300e+02  9.7900e+02  3.0000e+03  3.0000e+03  3.0000e+03  3.0000e+03  3.0000e+03
  3.0000e+03  3.0000e+03  3.0000e+03  3.0000e+03  3.0000e+03  3.0000e+03
  3.0000e+03  3.0000e+03  3.0000e+03  3.0000e+03  3.0000e+03  3.0000e+03  3.0000e+03  3.0000e+03  3.0000e+03  3.0000e+03
  3.0000e+03  3.0000e+03  3.0000e+03  3.0000e+03  3.0000e+03  3.0000e+03  3.0000e+03  3.0000e+03  3.0000e+03  3.0000e+03
  3.0000e+03  3.0000e+03  3.0000e+03  3.0000e+03  3.0000e+03  3.0000e+03  3.0000e+03  3.0000e+03  3.0000e+03  3.0000e+03
  3.0000e+03  3.0000e+03  3.0000e+03  3.0000e+03  3.0000e+03  3.0000e+03  3.0000e+03  3.0000e+03  3.0000e+03  3.0000e+03
  3.0000e+03  3.0000e+03  3.0000e+03  3.0000e+03  3.0000e+03  3.0000e+03  3.0000e+03  3.0000e+03  3.0000e+03  3.0000e+03
  3.0000e+03  3.0000e+03  3.0000e+03  3.0000e+03  3.0000e+03  3.0000e+03  3.0000e+03  3.0000e+03  3.0000e+03  3.0000e+03
  3.0000e+03  3.0000e+03  3.0000e+03  3.0000e+03  3.0000e+03  3.0000e+03  3.0000e+03  3.0000e+03  3.0000e+03  3.0000e+03
  1.4730e+03  1.4710e+03  1.4690e+03  1.4670e+03  1.4630e+03  1.4600e+03  1.4550e+03  1.4530e+03  1.4530e+03  1.4540e+03
  1.4550e+03  1.4540e+03  1.4450e+03  1.4440e+03  1.4430e+03  1.4380e+03  1.4350e+03  1.4340e+03  1.4330e+03  1.4270e+03
  1.4250e+03  1.4240e+03  1.4230e+03  1.4170e+03  1.4150e+03  1.4140e+03  1.4100e+03  1.4070e+03  1.4040e+03  1.4000e+03
  1.3950e+03  1.3950e+03  1.3940e+03  1.3780e+03  1.3660e+03  1.3600e+03  1.3640e+03  1.3680e+03  1.3640e+03  1.3650e+03
  1.3670e+03  1.3710e+03  1.3670e+03  1.3650e+03  1.3640e+03  1.3590e+03  1.3560e+03  1.3540e+03  1.3500e+03  1.3450e+03
  1.3460e+03  1.3420e+03  1.3360e+03  1.3350e+03  1.3330e+03  1.3280e+03  1.3280e+03  1.3240e+03  1.3180e+03  1.3160e+03
  1.3120e+03  1.3080e+03  1.3070e+03  1.3060e+03  1.3010e+03  1.2910e+03  1.2880e+03  1.2850e+03  1.2860e+03  1.2840e+03
  1.2810e+03  1.2730e+03  1.2700e+03  1.2640e+03  1.2510e+03  1.2390e+03  1.2230e+03  1.1880e+03  1.1470e+03  1.1330e+03
  1.1060e+03  1.1030e+03  1.1020e+03  1.0850e+03  1.0670e+03  1.0630e+03  1.0620e+03  1.0610e+03  1.0620e+03  1.0550e+03
  1.0370e+03  1.0120e+03  1.0370e+03  9.9000e+02  9.6800e+02  9.7000e+02  9.7400e+02  9.7900e+02  9.7600e+02  9.9000e+02
  1.0000e+03  3.0000e+03  3.0000e+03  3.0000e+03  3.0000e+03  3.0000e+03
  3.0000e+03  3.0000e+03  3.0000e+03  3.0000e+03  3.0000e+03  3.0000e+03  3.0000e+03  3.0000e+03  3.0000e+03  3.0000e+03
  3.0000e+03  3.0000e+03  3.0000e+03  3.0000e+03  3.0000e+03  3.0000e+03  3.0000e+03  3.0000e+03  3.0000e+03  3.0000e+03
  3.0000e+03  3.0000e+03  3.0000e+03  3.0000e+03  3.0000e+03  3.0000e+03  3.0000e+03  3.0000e+03  3.0000e+03  3.0000e+03
  3.0000e+03  3.0000e+03  3.0000e+03  3.0000e+03  3.0000e+03  3.0000e+03  3.0000e+03  3.0000e+03  3.0000e+03  3.0000e+03
  3.0000e+03  3.0000e+03  3.0000e+03  3.0000e+03  3.0000e+03  3.0000e+03  3.0000e+03  3.0000e+03  3.0000e+03  3.0000e+03
  3.0000e+03  3.0000e+03  3.0000e+03  3.0000e+03  3.0000e+03  3.0000e+03  3.0000e+03  3.0000e+03  3.0000e+03  3.0000e+03
  1.5150e+03  1.5140e+03  1.5150e+03  1.5180e+03  1.5210e+03  1.5150e+03  1.5100e+03  1.5020e+03  1.5000e+03  1.4960e+03
  1.4930e+03  1.4890e+03  1.4860e+03  1.4820e+03  1.4810e+03  1.4790e+03  1.4770e+03  1.4750e+03  1.4690e+03  1.4640e+03
  1.4600e+03  1.4560e+03  1.4520e+03  1.4490e+03  1.4450e+03  1.4420e+03  1.4390e+03  1.4350e+03  1.4330e+03  1.4300e+03
  1.4270e+03  1.4240e+03  1.4220e+03  1.4200e+03  1.4190e+03  1.4160e+03  1.4140e+03  1.4120e+03  1.4090e+03  1.4060e+03
  1.4030e+03  1.3990e+03  1.3960e+03  1.3920e+03  1.3890e+03  1.3860e+03  1.3830e+03  1.3810e+03  1.3780e+03  1.3750e+03
  1.3730e+03  1.3710e+03  1.3680e+03  1.3660e+03  1.3630e+03  1.3600e+03  1.3570e+03  1.3540e+03  1.3510e+03  1.3480e+03
  1.3450e+03  1.3430e+03  1.3390e+03  1.3360e+03  1.3320e+03  1.3290e+03  1.3250e+03  1.3230e+03  1.3190e+03  1.3170e+03
  1.3120e+03  1.3100e+03  1.3060e+03  1.3030e+03  1.3000e+03  1.2970e+03  1.2930e+03  1.2900e+03  1.2860e+03  1.2830e+03
  1.2800e+03  1.2760e+03  1.2700e+03  1.2610e+03  1.2480e+03  1.2310e+03  1.2170e+03  1.2040e+03  1.1830e+03  1.1500e+03
  1.1360e+03  1.1220e+03  1.1110e+03  1.0980e+03  1.0850e+03  1.0630e+03  1.0630e+03  1.0510e+03  1.0470e+03  1.0320e+03
  1.0250e+03  1.0240e+03  1.0130e+03  1.0040e+03  9.6100e+02  9.6600e+02  9.6900e+02  9.6300e+02  9.8300e+02  9.8100e+02
  9.8600e+02  9.9000e+02  9.9600e+02  1.0000e+03  3.0000e+03  3.0000e+03
  3.0000e+03  3.0000e+03  3.0000e+03  3.0000e+03  3.0000e+03  3.0000e+03  3.0000e+03  3.0000e+03  3.0000e+03  3.0000e+03
  3.0000e+03  3.0000e+03  3.0000e+03  3.0000e+03  3.0000e+03  3.0000e+03  3.0000e+03  3.0000e+03  3.0000e+03  3.0000e+03
  3.0000e+03  3.0000e+03  3.0000e+03  3.0000e+03  3.0000e+03  3.0000e+03  3.0000e+03  3.0000e+03  3.0000e+03  3.0000e+03
  3.0000e+03  3.0000e+03  3.0000e+03  1.6350e+03  1.6430e+03  1.6360e+03  1.6280e+03  1.6220e+03  1.6120e+03  1.6060e+03
  1.6000e+03  1.5980e+03  1.5930e+03  1.5910e+03  1.5850e+03  1.5810e+03  1.5770e+03  1.5730e+03  1.5690e+03  1.5650e+03
  1.5610e+03  1.5570e+03  1.5560e+03  1.5520e+03  1.5490e+03  1.5450e+03  1.5420e+03  1.5380e+03  1.5360e+03  1.5340e+03
  1.5340e+03  1.5310e+03  1.5300e+03  1.5270e+03  1.5240e+03  1.5210e+03  1.5170e+03  1.5130e+03  1.5100e+03  1.5060e+03
  1.5000e+03  1.4970e+03  1.4940e+03  1.4920e+03  1.4890e+03  1.4860e+03  1.4830e+03  1.4790e+03  1.4760e+03  1.4720e+03
  1.4670e+03  1.4630e+03  1.4580e+03  1.4550e+03  1.4530e+03  1.4510e+03  1.4490e+03  1.4470e+03  1.4440e+03  1.4410e+03
  1.4370e+03  1.4350e+03  1.4320e+03  1.4280e+03  1.4250e+03  1.4230e+03  1.4190e+03  1.4150e+03  1.4120e+03  1.4070e+03
  1.4040e+03  1.3990e+03  1.3970e+03  1.3930e+03  1.3900e+03  1.3860e+03  1.3830e+03  1.3790e+03  1.3760e+03  1.3720e+03
  1.3700e+03  1.3660e+03  1.3630e+03  1.3610e+03  1.3580e+03  1.3550e+03  1.3520e+03  1.3490e+03  1.3450e+03  1.3430e+03
  1.3390e+03  1.3370e+03  1.3330e+03  1.3300e+03  1.3270e+03  1.3250e+03  1.3210e+03  1.3190e+03  1.3160e+03  1.3130e+03
  1.3100e+03  1.3070e+03  1.3050e+03  1.3010e+03  1.2980e+03  1.2940e+03  1.2910e+03  1.2880e+03  1.2850e+03  1.2820e+03
  1.2780e+03  1.2730e+03  1.2660e+03  1.2580e+03  1.2440e+03  1.2280e+03  1.2150e+03  1.2050e+03  1.1830e+03  1.1680e+03
  1.1450e+03  1.1450e+03  1.1170e+03  1.0970e+03  1.0870e+03  1.0730e+03  1.0650e+03  1.0480e+03  1.0420e+03  1.0330e+03
  1.0270e+03  1.0190e+03  1.0100e+03  1.0030e+03  9.6100e+02  9.6300e+02  9.6400e+02  9.6000e+02  9.7900e+02  9.8300e+02
  9.7900e+02  9.8900e+02  1.0000e+03  1.0080e+03  1.0190e+03  3.0000e+03
  3.0000e+03  3.0000e+03  3.0000e+03  3.0000e+03  3.0000e+03  3.0000e+03  3.0000e+03  3.0000e+03  3.0000e+03  3.0000e+03
  3.0000e+03  3.0000e+03  3.0000e+03  3.0000e+03  3.0000e+03  3.0000e+03  3.0000e+03  3.0000e+03  3.0000e+03  3.0000e+03
  1.7080e+03  1.7030e+03  1.6960e+03  1.6900e+03  1.6820e+03  1.6720e+03  1.6580e+03  1.6610e+03  1.6590e+03  1.6570e+03
  1.6520e+03  1.6470e+03  1.6440e+03  1.6390e+03  1.6360e+03  1.6300e+03  1.6270e+03  1.6210e+03  1.6170e+03  1.6130e+03
  1.6090e+03  1.6050e+03  1.6020e+03  1.5980e+03  1.5930e+03  1.5890e+03  1.5830e+03  1.5800e+03  1.5760e+03  1.5730e+03
  1.5700e+03  1.5690e+03  1.5650e+03  1.5620e+03  1.5570e+03  1.5530e+03  1.5480e+03  1.5440e+03  1.5390e+03  1.5350e+03
  1.5310e+03  1.5280e+03  1.5250e+03  1.5220e+03  1.5190e+03  1.5160e+03  1.5120e+03  1.5090e+03  1.5060e+03  1.5010e+03
  1.4980e+03  1.4950e+03  1.4920e+03  1.4880e+03  1.4850e+03  1.4820e+03  1.4790e+03  1.4760e+03  1.4730e+03  1.4690e+03
  1.4660e+03  1.4620e+03  1.4590e+03  1.4560e+03  1.4530e+03  1.4500e+03  1.4460e+03  1.4430e+03  1.4400e+03  1.4370e+03
  1.4340e+03  1.4310e+03  1.4280e+03  1.4240e+03  1.4210e+03  1.4190e+03  1.4150e+03  1.4120e+03  1.4090e+03  1.4070e+03
  1.4040e+03  1.4020e+03  1.3980e+03  1.3950e+03  1.3930e+03  1.3890e+03  1.3850e+03  1.3810e+03  1.3770e+03  1.3720e+03
  1.3690e+03  1.3660e+03  1.3630e+03  1.3590e+03  1.3550e+03  1.3510e+03  1.3480e+03  1.3440e+03  1.3410e+03  1.3390e+03
  1.3370e+03  1.3340e+03  1.3300e+03  1.3260e+03  1.3220e+03  1.3200e+03  1.3170e+03  1.3140e+03  1.3110e+03  1.3080e+03
  1.3050e+03  1.3020e+03  1.2990e+03  1.2970e+03  1.2930e+03  1.2900e+03  1.2870e+03  1.2840e+03  1.2810e+03  1.2780e+03
  1.2750e+03  1.2710e+03  1.2650e+03  1.2560e+03  1.2430e+03  1.2270e+03  1.2110e+03  1.1980e+03  1.1830e+03  1.1630e+03
  1.1530e+03  1.1390e+03  1.1280e+03  1.1040e+03  1.0820e+03  1.0730e+03  1.0600e+03  1.0500e+03  1.0440e+03  1.0290e+03
  1.0200e+03  1.0120e+03  1.0050e+03  9.9400e+02  9.6900e+02  9.5800e+02  9.6300e+02  9.5800e+02  9.6200e+02  9.6500e+02
  9.8000e+02  9.9500e+02  1.0100e+03  1.0260e+03  1.1300e+03  3.0000e+03
  3.0000e+03  3.0000e+03  3.0000e+03  3.0000e+03  3.0000e+03  3.0000e+03  3.0000e+03  3.0000e+03  3.0000e+03  3.0000e+03
  1.9180e+03  1.8870e+03  1.8620e+03  1.8230e+03  1.7830e+03  1.7590e+03  1.7390e+03  1.7240e+03  1.7230e+03  1.7210e+03
  1.7130e+03  1.7060e+03  1.6980e+03  1.6930e+03  1.6880e+03  1.6840e+03  1.6770e+03  1.6720e+03  1.6670e+03  1.6620e+03
  1.6570e+03  1.6530e+03  1.6480e+03  1.6430e+03  1.6400e+03  1.6350e+03  1.6300e+03  1.6250e+03  1.6200e+03  1.6160e+03
  1.6120e+03  1.6080e+03  1.6030e+03  1.5990e+03  1.5940e+03  1.5900e+03  1.5850e+03  1.5810e+03  1.5760e+03  1.5720e+03
  1.5680e+03  1.5640e+03  1.5600e+03  1.5560e+03  1.5530e+03  1.5490e+03  1.5450e+03  1.5400e+03  1.5360e+03  1.5310e+03
  1.5280e+03  1.5230e+03  1.5210e+03  1.5170e+03  1.5140e+03  1.5110e+03  1.5090e+03  1.5050e+03  1.5010e+03  1.4980e+03
  1.4940e+03  1.4920e+03  1.4880e+03  1.4850e+03  1.4820e+03  1.4800e+03  1.4770e+03  1.4740e+03  1.4710e+03  1.4680e+03
  1.4650e+03  1.4610e+03  1.4580e+03  1.4550e+03  1.4530e+03  1.4500e+03  1.4470e+03  1.4440e+03  1.4400e+03  1.4370e+03
  1.4340e+03  1.4300e+03  1.4260e+03  1.4220e+03  1.4190e+03  1.4160e+03  1.4130e+03  1.4100e+03  1.4070e+03  1.4040e+03
  1.4010e+03  1.3980e+03  1.3950e+03  1.3930e+03  1.3910e+03  1.3880e+03  1.3850e+03  1.3810e+03  1.3780e+03  1.3730e+03
  1.3690e+03  1.3650e+03  1.3620e+03  1.3590e+03  1.3570e+03  1.3540e+03  1.3500e+03  1.3470e+03  1.3440e+03  1.3410e+03
  1.3370e+03  1.3330e+03  1.3290e+03  1.3250e+03  1.3220e+03  1.3190e+03  1.3160e+03  1.3130e+03  1.3100e+03  1.3070e+03
  1.3040e+03  1.3010e+03  1.2970e+03  1.2940e+03  1.2910e+03  1.2880e+03  1.2840e+03  1.2810e+03  1.2790e+03  1.2760e+03
  1.2730e+03  1.2690e+03  1.2640e+03  1.2550e+03  1.2420e+03  1.2250e+03  1.2100e+03  1.1960e+03  1.1830e+03  1.1830e+03
  1.1560e+03  1.1370e+03  1.1250e+03  1.1110e+03  1.0970e+03  1.0780e+03  1.0580e+03  1.0460e+03  1.0370e+03  1.0270e+03
  1.0170e+03  1.0090e+03  1.0010e+03  9.8900e+02  9.7400e+02  9.6200e+02  9.6200e+02  9.5600e+02  9.5700e+02  9.6400e+02
  9.8100e+02  9.9600e+02  1.0130e+03  1.0310e+03  1.0560e+03  3.0000e+03
  3.0000e+03  3.0000e+03  3.0000e+03  3.0000e+03  3.0000e+03  3.0000e+03  3.0000e+03  3.0000e+03  3.0000e+03  3.0000e+03
  1.9210e+03  1.8920e+03  1.8640e+03  1.8260e+03  1.7840e+03  1.7590e+03  1.7390e+03  1.7280e+03  1.7200e+03  1.7160e+03
  1.7140e+03  1.7140e+03  1.7120e+03  1.7070e+03  1.6960e+03  1.6850e+03  1.6810e+03  1.6740e+03  1.6700e+03  1.6650e+03
  1.6600e+03  1.6560e+03  1.6500e+03  1.6460e+03  1.6410e+03  1.6370e+03  1.6310e+03  1.6260e+03  1.6200e+03  1.6160e+03
  1.6100e+03  1.6060e+03  1.6020e+03  1.5970e+03  1.5930e+03  1.5890e+03  1.5850e+03  1.5810e+03  1.5760e+03  1.5720e+03
  1.5670e+03  1.5630e+03  1.5590e+03  1.5550e+03  1.5520e+03  1.5480e+03  1.5440e+03  1.5400e+03  1.5360e+03  1.5320e+03
  1.5280e+03  1.5240e+03  1.5200e+03  1.5170e+03  1.5140e+03  1.5100e+03  1.5070e+03  1.5030e+03  1.5000e+03  1.4960e+03
  1.4930e+03  1.4890e+03  1.4860e+03  1.4860e+03  1.4840e+03  1.4800e+03  1.4770e+03  1.4730e+03  1.4700e+03  1.4670e+03
  1.4630e+03  1.4600e+03  1.4560e+03  1.4540e+03  1.4510e+03  1.4490e+03  1.4450e+03  1.4430e+03  1.4390e+03  1.4360e+03
  1.4320e+03  1.4290e+03  1.4250e+03  1.4210e+03  1.4190e+03  1.4160e+03  1.4130e+03  1.4090e+03  1.4060e+03  1.4020e+03
  1.4000e+03  1.3950e+03  1.3920e+03  1.3900e+03  1.3880e+03  1.3850e+03  1.3830e+03  1.3810e+03  1.3780e+03  1.3750e+03
  1.3710e+03  1.3660e+03  1.3620e+03  1.3600e+03  1.3580e+03  1.3540e+03  1.3510e+03  1.3480e+03  1.3450e+03  1.3420e+03
  1.3370e+03  1.3320e+03  1.3280e+03  1.3250e+03  1.3210e+03  1.3180e+03  1.3150e+03  1.3120e+03  1.3080e+03  1.3060e+03
  1.3020e+03  1.3000e+03  1.2960e+03  1.2930e+03  1.2890e+03  1.2860e+03  1.2830e+03  1.2800e+03  1.2770e+03  1.2740e+03
  1.2710e+03  1.2680e+03  1.2620e+03  1.2540e+03  1.2420e+03  1.2250e+03  1.2090e+03  1.1940e+03  1.1800e+03  1.1760e+03
  1.1620e+03  1.1370e+03  1.1210e+03  1.1100e+03  1.0960e+03  1.0830e+03  1.0590e+03  1.0440e+03  1.0340e+03  1.0250e+03
  1.0150e+03  1.0060e+03  9.9800e+02  9.8900e+02  9.7800e+02  9.6300e+02  9.5900e+02  9.5300e+02  9.5200e+02  9.5700e+02
  9.7800e+02  9.9500e+02  1.0120e+03  1.0320e+03  1.0530e+03  3.0000e+03
  3.0000e+03  3.0000e+03  3.0000e+03  3.0000e+03  3.0000e+03  3.0000e+03  3.0000e+03  3.0000e+03  3.0000e+03  1.9500e+03
  1.9220e+03  1.8940e+03  1.8660e+03  1.8260e+03  1.7840e+03  1.7570e+03  1.7410e+03  1.7300e+03  1.7240e+03  1.7200e+03
  1.7180e+03  1.7200e+03  1.7220e+03  1.7200e+03  1.7040e+03  1.6890e+03  1.6800e+03  1.6760e+03  1.6710e+03  1.6650e+03
  1.6610e+03  1.6550e+03  1.6510e+03  1.6450e+03  1.6410e+03  1.6360e+03  1.6310e+03  1.6250e+03  1.6210e+03  1.6150e+03
  1.6110e+03  1.6060e+03  1.6010e+03  1.5970e+03  1.5930e+03  1.5900e+03  1.5850e+03  1.5810e+03  1.5770e+03  1.5720e+03
  1.5680e+03  1.5630e+03  1.5600e+03  1.5550e+03  1.5520e+03  1.5480e+03  1.5440e+03  1.5390e+03  1.5350e+03  1.5310e+03
  1.5270e+03  1.5230e+03  1.5200e+03  1.5160e+03  1.5130e+03  1.5100e+03  1.5060e+03  1.5020e+03  1.4970e+03  1.4940e+03
  1.4890e+03  1.4850e+03  1.4820e+03  1.4800e+03  1.4810e+03  1.4770e+03  1.4740e+03  1.4710e+03  1.4680e+03  1.4640e+03
  1.4610e+03  1.4580e+03  1.4560e+03  1.4520e+03  1.4500e+03  1.4480e+03  1.4450e+03  1.4420e+03  1.4390e+03  1.4350e+03
  1.4320e+03  1.4280e+03  1.4250e+03  1.4210e+03  1.4170e+03  1.4140e+03  1.4110e+03  1.4090e+03  1.4050e+03  1.4030e+03
  1.3980e+03  1.3950e+03  1.3920e+03  1.3900e+03  1.3870e+03  1.3820e+03  1.3800e+03  1.3780e+03  1.3750e+03  1.3740e+03
  1.3700e+03  1.3660e+03  1.3630e+03  1.3600e+03  1.3570e+03  1.3540e+03  1.3510e+03  1.3470e+03  1.3430e+03  1.3400e+03
  1.3360e+03  1.3310e+03  1.3270e+03  1.3230e+03  1.3200e+03  1.3170e+03  1.3140e+03  1.3110e+03  1.3080e+03  1.3050e+03
  1.3020e+03  1.2980e+03  1.2950e+03  1.2920e+03  1.2880e+03  1.2860e+03  1.2820e+03  1.2800e+03  1.2760e+03  1.2740e+03
  1.2710e+03  1.2670e+03  1.2610e+03  1.2530e+03  1.2410e+03  1.2230e+03  1.2090e+03  1.1930e+03  1.1790e+03  1.1790e+03
  1.1820e+03  1.1400e+03  1.1190e+03  1.1080e+03  1.0950e+03  1.0810e+03  1.0620e+03  1.0430e+03  1.0320e+03  1.0240e+03
  1.0140e+03  1.0040e+03  9.9700e+02  9.8800e+02  9.7300e+02  9.6300e+02  9.5700e+02  9.4900e+02  9.4900e+02  9.5700e+02
  9.7500e+02  9.9400e+02  1.0110e+03  1.0320e+03  1.0590e+03  3.0000e+03
  3.0000e+03  3.0000e+03  3.0000e+03  3.0000e+03  3.0000e+03  3.0000e+03  3.0000e+03  2.0020e+03  1.9730e+03  1.9510e+03
  1.9240e+03  1.8940e+03  1.8650e+03  1.8270e+03  1.7840e+03  1.7570e+03  1.7410e+03  1.7320e+03  1.7250e+03  1.7190e+03
  1.7180e+03  1.7200e+03  1.7210e+03  1.7160e+03  1.7040e+03  1.6880e+03  1.6810e+03  1.6760e+03  1.6710e+03  1.6660e+03
  1.6610e+03  1.6550e+03  1.6500e+03  1.6450e+03  1.6400e+03  1.6350e+03  1.6310e+03  1.6260e+03  1.6210e+03  1.6160e+03
  1.6110e+03  1.6060e+03  1.6020e+03  1.5980e+03  1.5940e+03  1.5890e+03  1.5850e+03  1.5810e+03  1.5760e+03  1.5730e+03
  1.5680e+03  1.5650e+03  1.5600e+03  1.5570e+03  1.5520e+03  1.5480e+03  1.5440e+03  1.5400e+03  1.5350e+03  1.5310e+03
  1.5270e+03  1.5220e+03  1.5190e+03  1.5160e+03  1.5130e+03  1.5090e+03  1.5060e+03  1.5010e+03  1.4980e+03  1.4930e+03
  1.4890e+03  1.4840e+03  1.4810e+03  1.4790e+03  1.4780e+03  1.4750e+03  1.4720e+03  1.4690e+03  1.4660e+03  1.4630e+03
  1.4590e+03  1.4570e+03  1.4550e+03  1.4530e+03  1.4500e+03  1.4470e+03  1.4450e+03  1.4410e+03  1.4370e+03  1.4340e+03
  1.4310e+03  1.4270e+03  1.4230e+03  1.4200e+03  1.4170e+03  1.4130e+03  1.4110e+03  1.4070e+03  1.4050e+03  1.4020e+03
  1.3980e+03  1.3940e+03  1.3910e+03  1.3870e+03  1.3840e+03  1.3810e+03  1.3790e+03  1.3760e+03  1.3740e+03  1.3720e+03
  1.3690e+03  1.3660e+03  1.3630e+03  1.3610e+03  1.3580e+03  1.3540e+03  1.3510e+03  1.3470e+03  1.3430e+03  1.3390e+03
  1.3350e+03  1.3310e+03  1.3270e+03  1.3240e+03  1.3200e+03  1.3170e+03  1.3140e+03  1.3110e+03  1.3070e+03  1.3040e+03
  1.3010e+03  1.2980e+03  1.2950e+03  1.2910e+03  1.2880e+03  1.2850e+03  1.2820e+03  1.2780e+03  1.2760e+03  1.2730e+03
  1.2700e+03  1.2660e+03  1.2600e+03  1.2530e+03  1.2410e+03  1.2220e+03  1.2080e+03  1.1920e+03  1.1780e+03  1.1770e+03
  1.1840e+03  1.1430e+03  1.1190e+03  1.1070e+03  1.0930e+03  1.0800e+03  1.0640e+03  1.0410e+03  1.0310e+03  1.0220e+03
  1.0120e+03  1.0030e+03  9.9500e+02  9.8700e+02  9.7200e+02  9.6500e+02  9.5700e+02  9.4800e+02  9.4800e+02  9.5700e+02
  9.7400e+02  9.9400e+02  1.0110e+03  1.0330e+03  3.0000e+03  3.0000e+03
  3.0000e+03  3.0000e+03  3.0000e+03  3.0000e+03  3.0000e+03  3.0000e+03  2.0320e+03  2.0030e+03  1.9740e+03  1.9520e+03
  1.9240e+03  1.8940e+03  1.8660e+03  1.8270e+03  1.7840e+03  1.7610e+03  1.7420e+03  1.7320e+03  1.7250e+03  1.7200e+03
  1.7180e+03  1.7180e+03  1.7170e+03  1.7120e+03  1.7020e+03  1.6870e+03  1.6810e+03  1.6760e+03  1.6710e+03  1.6660e+03
  1.6610e+03  1.6560e+03  1.6500e+03  1.6450e+03  1.6400e+03  1.6360e+03  1.6310e+03  1.6260e+03  1.6210e+03  1.6170e+03
  1.6120e+03  1.6080e+03  1.6030e+03  1.5990e+03  1.5940e+03  1.5890e+03  1.5850e+03  1.5800e+03  1.5770e+03  1.5720e+03
  1.5680e+03  1.5640e+03  1.5600e+03  1.5560e+03  1.5520e+03  1.5470e+03  1.5430e+03  1.5390e+03  1.5350e+03  1.5310e+03
  1.5270e+03  1.5230e+03  1.5190e+03  1.5160e+03  1.5130e+03  1.5090e+03  1.5060e+03  1.5020e+03  1.4970e+03  1.4930e+03
  1.4880e+03  1.4840e+03  1.4810e+03  1.4780e+03  1.4760e+03  1.4740e+03  1.4710e+03  1.4690e+03  1.4660e+03  1.4620e+03
  1.4580e+03  1.4560e+03  1.4540e+03  1.4520e+03  1.4490e+03  1.4470e+03  1.4440e+03  1.4400e+03  1.4370e+03  1.4330e+03
  1.4300e+03  1.4260e+03  1.4230e+03  1.4190e+03  1.4160e+03  1.4130e+03  1.4100e+03  1.4070e+03  1.4040e+03  1.4010e+03
  1.3980e+03  1.3920e+03  1.3900e+03  1.3860e+03  1.3830e+03  1.3800e+03  1.3780e+03  1.3750e+03  1.3730e+03  1.3710e+03
  1.3680e+03  1.3670e+03  1.3640e+03  1.3610e+03  1.3580e+03  1.3550e+03  1.3510e+03  1.3470e+03  1.3420e+03  1.3390e+03
  1.3350e+03  1.3310e+03  1.3270e+03  1.3230e+03  1.3200e+03  1.3170e+03  1.3140e+03  1.3100e+03  1.3070e+03  1.3040e+03
  1.3010e+03  1.2980e+03  1.2950e+03  1.2920e+03  1.2880e+03  1.2850e+03  1.2810e+03  1.2790e+03  1.2760e+03  1.2720e+03
  1.2700e+03  1.2650e+03  1.2600e+03  1.2520e+03  1.2390e+03  1.2220e+03  1.2080e+03  1.1920e+03  1.1770e+03  1.1770e+03
  1.1830e+03  1.1490e+03  1.1200e+03  1.1060e+03  1.0920e+03  1.0800e+03  1.0650e+03  1.0410e+03  1.0300e+03  1.0210e+03
  1.0110e+03  1.0020e+03  9.9500e+02  9.8600e+02  9.7200e+02  9.6200e+02  9.5700e+02  9.4700e+02  9.4800e+02  9.5700e+02
  9.7200e+02  9.9300e+02  1.0100e+03  1.0350e+03  3.0000e+03  3.0000e+03
  3.0000e+03  3.0000e+03  3.0000e+03  3.0000e+03  3.0000e+03  3.0000e+03  2.0330e+03  2.0030e+03  1.9740e+03  1.9510e+03
  1.9230e+03  1.8930e+03  1.8650e+03  1.8280e+03  1.7850e+03  1.7610e+03  1.7420e+03  1.7330e+03  1.7250e+03  1.7200e+03
  1.7160e+03  1.7150e+03  1.7130e+03  1.7070e+03  1.6960e+03  1.6870e+03  1.6820e+03  1.6760e+03  1.6710e+03  1.6660e+03
  1.6610e+03  1.6550e+03  1.6500e+03  1.6450e+03  1.6400e+03  1.6350e+03  1.6310e+03  1.6260e+03  1.6210e+03  1.6170e+03
  1.6120e+03  1.6080e+03  1.6030e+03  1.5990e+03  1.5940e+03  1.5890e+03  1.5850e+03  1.5810e+03  1.5770e+03  1.5720e+03
  1.5690e+03  1.5650e+03  1.5610e+03  1.5560e+03  1.5520e+03  1.5480e+03  1.5440e+03  1.5390e+03  1.5350e+03  1.5310e+03
  1.5270e+03  1.5230e+03  1.5190e+03  1.5160e+03  1.5120e+03  1.5090e+03  1.5060e+03  1.5010e+03  1.4960e+03  1.4930e+03
  1.4880e+03  1.4840e+03  1.4800e+03  1.4780e+03  1.4760e+03  1.4730e+03  1.4700e+03  1.4670e+03  1.4650e+03  1.4610e+03
  1.4580e+03  1.4550e+03  1.4530e+03  1.4510e+03  1.4480e+03  1.4460e+03  1.4430e+03  1.4400e+03  1.4360e+03  1.4330e+03
  1.4290e+03  1.4250e+03  1.4220e+03  1.4190e+03  1.4160e+03  1.4130e+03  1.4100e+03  1.4070e+03  1.4040e+03  1.4010e+03
  1.3970e+03  1.3930e+03  1.3890e+03  1.3860e+03  1.3830e+03  1.3800e+03  1.3770e+03  1.3740e+03  1.3710e+03  1.3700e+03
  1.3680e+03  1.3680e+03  1.3650e+03  1.3620e+03  1.3580e+03  1.3560e+03  1.3510e+03  1.3470e+03  1.3420e+03  1.3380e+03
  1.3360e+03  1.3310e+03  1.3270e+03  1.3230e+03  1.3200e+03  1.3170e+03  1.3140e+03  1.3100e+03  1.3070e+03  1.3040e+03
  1.3010e+03  1.2970e+03  1.2940e+03  1.2910e+03  1.2880e+03  1.2840e+03  1.2810e+03  1.2780e+03  1.2750e+03  1.2720e+03
  1.2690e+03  1.2660e+03  1.2600e+03  1.2510e+03  1.2390e+03  1.2230e+03  1.2080e+03  1.1900e+03  1.1750e+03  1.1710e+03
  1.1820e+03  1.1510e+03  1.1200e+03  1.1060e+03  1.0920e+03  1.0790e+03  1.0650e+03  1.0410e+03  1.0280e+03  1.0210e+03
  1.0100e+03  1.0010e+03  9.9400e+02  9.8600e+02  9.6900e+02  9.5700e+02  9.5600e+02  9.4700e+02  9.4700e+02  9.5700e+02
  9.7100e+02  9.9200e+02  1.0090e+03  1.0330e+03  3.0000e+03  3.0000e+03
  3.0000e+03  3.0000e+03  3.0000e+03  3.0000e+03  3.0000e+03  3.0000e+03  2.0330e+03  2.0060e+03  1.9750e+03  1.9500e+03
  1.9230e+03  1.8930e+03  1.8660e+03  1.8280e+03  1.7850e+03  1.7610e+03  1.7440e+03  1.7320e+03  1.7250e+03  1.7200e+03
  1.7150e+03  1.7120e+03  1.7080e+03  1.7030e+03  1.6940e+03  1.6870e+03  1.6820e+03  1.6760e+03  1.6710e+03  1.6660e+03
  1.6610e+03  1.6550e+03  1.6500e+03  1.6450e+03  1.6400e+03  1.6360e+03  1.6310e+03  1.6260e+03  1.6220e+03  1.6170e+03
  1.6130e+03  1.6080e+03  1.6040e+03  1.6000e+03  1.5950e+03  1.5900e+03  1.5850e+03  1.5800e+03  1.5770e+03  1.5720e+03