                                  MODFLOW-USG      
      U.S. GEOLOGICAL SURVEY MODULAR FINITE-DIFFERENCE GROUNDWATER FLOW MODEL
                            VERSION 1.4.00 01/13/2016

 LIST FILE: kzusg.list
                         UNIT    2

 OPENING kzusg.dis
 FILE TYPE:DIS   UNIT   11   STATUS:OLD    
 FORMAT:FORMATTED              ACCESS:SEQUENTIAL          

 OPENING kzusg.bas
 FILE TYPE:BAS6   UNIT   13   STATUS:OLD    
 FORMAT:FORMATTED              ACCESS:SEQUENTIAL          

 OPENING kzusg.lpf
 FILE TYPE:LPF   UNIT   15   STATUS:OLD    
 FORMAT:FORMATTED              ACCESS:SEQUENTIAL          

 OPENING kzusg.rch
 FILE TYPE:RCH   UNIT   19   STATUS:OLD    
 FORMAT:FORMATTED              ACCESS:SEQUENTIAL          

 OPENING kzusg.oc
 FILE TYPE:OC   UNIT   14   STATUS:OLD    
 FORMAT:FORMATTED              ACCESS:SEQUENTIAL          

 OPENING kzusg.hds
 FILE TYPE:DATA(BINARY)   UNIT   51   STATUS:REPLACE
 FORMAT:UNFORMATTED            ACCESS:STREAM              

 OPENING kzusg.ddn
 FILE TYPE:DATA(BINARY)   UNIT   52   STATUS:REPLACE
 FORMAT:UNFORMATTED            ACCESS:STREAM              

 OPENING kzusg.cbc
 FILE TYPE:DATA(BINARY)   UNIT   53   STATUS:REPLACE
 FORMAT:UNFORMATTED            ACCESS:STREAM              

 OPENING kzusg.sms
 FILE TYPE:SMS   UNIT   32   STATUS:OLD    
 FORMAT:FORMATTED              ACCESS:SEQUENTIAL          

 BAS -- BASIC PACKAGE-USG      1.4.00 01/13/2016                        INPUT READ FROM UNIT   13

 # Basic package file for MODFLOW, generated by Flopy.                           
 THE FREE FORMAT OPTION HAS BEEN SELECTED

 DIS -- UNSTRUCTURED GRID DISCRETIZATION PACKAGE, VERSION 1 : 5/17/2010 - INPUT READ FROM UNIT   11
 # Discretization file for MODFLOW, generated by Flopy.
   80 LAYERS         1 ROWS       400 COLUMNS
    1 STRESS PERIOD(S) IN SIMULATION
 MODEL TIME UNIT IS DAYS
 MODEL LENGTH UNIT IS METERS
  Confining bed flag for each layer:
   0   0   0   0   0   0   0   0   0   0   0   0   0   0   0   0   0   0   0   0
   0   0   0   0   0   0   0   0   0   0   0   0   0   0   0   0   0   0   0   0
   0   0   0   0   0   0   0   0   0   0   0   0   0   0   0   0   0   0   0   0
   0   0   0   0   0   0   0   0   0   0   0   0   0   0   0   0   0   0   0   0

 DIS -- UNSTRUCTURED GRID DISCRETIZATION PACKAGE, VERSION 1 : 5/17/2010 - INPUT READ FROM UNIT   11

                     DELR =   25.0000    

                     DELC =   1.00000    

 TOP ELEVATION OF LAYER 1 =   2000.00    

   MODEL LAYER BOTTOM EL. =   1975.00     FOR LAYER   1

   MODEL LAYER BOTTOM EL. =   1950.00     FOR LAYER   2

   MODEL LAYER BOTTOM EL. =   1925.00     FOR LAYER   3

   MODEL LAYER BOTTOM EL. =   1900.00     FOR LAYER   4

   MODEL LAYER BOTTOM EL. =   1875.00     FOR LAYER   5

   MODEL LAYER BOTTOM EL. =   1850.00     FOR LAYER   6

   MODEL LAYER BOTTOM EL. =   1825.00     FOR LAYER   7

   MODEL LAYER BOTTOM EL. =   1800.00     FOR LAYER   8

   MODEL LAYER BOTTOM EL. =   1775.00     FOR LAYER   9

   MODEL LAYER BOTTOM EL. =   1750.00     FOR LAYER  10

   MODEL LAYER BOTTOM EL. =   1725.00     FOR LAYER  11

   MODEL LAYER BOTTOM EL. =   1700.00     FOR LAYER  12

   MODEL LAYER BOTTOM EL. =   1675.00     FOR LAYER  13

   MODEL LAYER BOTTOM EL. =   1650.00     FOR LAYER  14

   MODEL LAYER BOTTOM EL. =   1625.00     FOR LAYER  15

   MODEL LAYER BOTTOM EL. =   1600.00     FOR LAYER  16

   MODEL LAYER BOTTOM EL. =   1575.00     FOR LAYER  17

   MODEL LAYER BOTTOM EL. =   1550.00     FOR LAYER  18

   MODEL LAYER BOTTOM EL. =   1525.00     FOR LAYER  19

   MODEL LAYER BOTTOM EL. =   1500.00     FOR LAYER  20

   MODEL LAYER BOTTOM EL. =   1475.00     FOR LAYER  21

   MODEL LAYER BOTTOM EL. =   1450.00     FOR LAYER  22

   MODEL LAYER BOTTOM EL. =   1425.00     FOR LAYER  23

   MODEL LAYER BOTTOM EL. =   1400.00     FOR LAYER  24

   MODEL LAYER BOTTOM EL. =   1375.00     FOR LAYER  25

   MODEL LAYER BOTTOM EL. =   1350.00     FOR LAYER  26

   MODEL LAYER BOTTOM EL. =   1325.00     FOR LAYER  27

   MODEL LAYER BOTTOM EL. =   1300.00     FOR LAYER  28

   MODEL LAYER BOTTOM EL. =   1275.00     FOR LAYER  29

   MODEL LAYER BOTTOM EL. =   1250.00     FOR LAYER  30

   MODEL LAYER BOTTOM EL. =   1225.00     FOR LAYER  31

   MODEL LAYER BOTTOM EL. =   1200.00     FOR LAYER  32

   MODEL LAYER BOTTOM EL. =   1175.00     FOR LAYER  33

   MODEL LAYER BOTTOM EL. =   1150.00     FOR LAYER  34

   MODEL LAYER BOTTOM EL. =   1125.00     FOR LAYER  35

   MODEL LAYER BOTTOM EL. =   1100.00     FOR LAYER  36

   MODEL LAYER BOTTOM EL. =   1075.00     FOR LAYER  37

   MODEL LAYER BOTTOM EL. =   1050.00     FOR LAYER  38

   MODEL LAYER BOTTOM EL. =   1025.00     FOR LAYER  39

   MODEL LAYER BOTTOM EL. =   1000.00     FOR LAYER  40

   MODEL LAYER BOTTOM EL. =   975.000     FOR LAYER  41

   MODEL LAYER BOTTOM EL. =   950.000     FOR LAYER  42

   MODEL LAYER BOTTOM EL. =   925.000     FOR LAYER  43

   MODEL LAYER BOTTOM EL. =   900.000     FOR LAYER  44

   MODEL LAYER BOTTOM EL. =   875.000     FOR LAYER  45

   MODEL LAYER BOTTOM EL. =   850.000     FOR LAYER  46

   MODEL LAYER BOTTOM EL. =   825.000     FOR LAYER  47

   MODEL LAYER BOTTOM EL. =   800.000     FOR LAYER  48

   MODEL LAYER BOTTOM EL. =   775.000     FOR LAYER  49

   MODEL LAYER BOTTOM EL. =   750.000     FOR LAYER  50

   MODEL LAYER BOTTOM EL. =   725.000     FOR LAYER  51

   MODEL LAYER BOTTOM EL. =   700.000     FOR LAYER  52

   MODEL LAYER BOTTOM EL. =   675.000     FOR LAYER  53

   MODEL LAYER BOTTOM EL. =   650.000     FOR LAYER  54

   MODEL LAYER BOTTOM EL. =   625.000     FOR LAYER  55

   MODEL LAYER BOTTOM EL. =   600.000     FOR LAYER  56

   MODEL LAYER BOTTOM EL. =   575.000     FOR LAYER  57

   MODEL LAYER BOTTOM EL. =   550.000     FOR LAYER  58

   MODEL LAYER BOTTOM EL. =   525.000     FOR LAYER  59

   MODEL LAYER BOTTOM EL. =   500.000     FOR LAYER  60

   MODEL LAYER BOTTOM EL. =   475.000     FOR LAYER  61

   MODEL LAYER BOTTOM EL. =   450.000     FOR LAYER  62

   MODEL LAYER BOTTOM EL. =   425.000     FOR LAYER  63

   MODEL LAYER BOTTOM EL. =   400.000     FOR LAYER  64

   MODEL LAYER BOTTOM EL. =   375.000     FOR LAYER  65

   MODEL LAYER BOTTOM EL. =   350.000     FOR LAYER  66

   MODEL LAYER BOTTOM EL. =   325.000     FOR LAYER  67

   MODEL LAYER BOTTOM EL. =   300.000     FOR LAYER  68

   MODEL LAYER BOTTOM EL. =   275.000     FOR LAYER  69

   MODEL LAYER BOTTOM EL. =   250.000     FOR LAYER  70

   MODEL LAYER BOTTOM EL. =   225.000     FOR LAYER  71

   MODEL LAYER BOTTOM EL. =   200.000     FOR LAYER  72

   MODEL LAYER BOTTOM EL. =   175.000     FOR LAYER  73

   MODEL LAYER BOTTOM EL. =   150.000     FOR LAYER  74

   MODEL LAYER BOTTOM EL. =   125.000     FOR LAYER  75

   MODEL LAYER BOTTOM EL. =   100.000     FOR LAYER  76

   MODEL LAYER BOTTOM EL. =   75.0000     FOR LAYER  77

   MODEL LAYER BOTTOM EL. =   50.0000     FOR LAYER  78

   MODEL LAYER BOTTOM EL. =   25.0000     FOR LAYER  79

   MODEL LAYER BOTTOM EL. =   0.00000     FOR LAYER  80


 STRESS PERIOD     LENGTH       TIME STEPS     MULTIPLIER FOR DELT    SS FLAG
 ----------------------------------------------------------------------------
        1         3650.000          1                    1.000         SS

 STEADY-STATE SIMULATION






                     BOUNDARY ARRAY FOR LAYER   1
 READING ON UNIT   13 WITH FORMAT: (400I10)            



                     BOUNDARY ARRAY FOR LAYER   2
 READING ON UNIT   13 WITH FORMAT: (400I10)            



                     BOUNDARY ARRAY FOR LAYER   3
 READING ON UNIT   13 WITH FORMAT: (400I10)            



                     BOUNDARY ARRAY FOR LAYER   4
 READING ON UNIT   13 WITH FORMAT: (400I10)            



                     BOUNDARY ARRAY FOR LAYER   5
 READING ON UNIT   13 WITH FORMAT: (400I10)            



                     BOUNDARY ARRAY FOR LAYER   6
 READING ON UNIT   13 WITH FORMAT: (400I10)            



                     BOUNDARY ARRAY FOR LAYER   7
 READING ON UNIT   13 WITH FORMAT: (400I10)            



                     BOUNDARY ARRAY FOR LAYER   8
 READING ON UNIT   13 WITH FORMAT: (400I10)            



                     BOUNDARY ARRAY FOR LAYER   9
 READING ON UNIT   13 WITH FORMAT: (400I10)            



                     BOUNDARY ARRAY FOR LAYER  10
 READING ON UNIT   13 WITH FORMAT: (400I10)            



                     BOUNDARY ARRAY FOR LAYER  11
 READING ON UNIT   13 WITH FORMAT: (400I10)            



                     BOUNDARY ARRAY FOR LAYER  12
 READING ON UNIT   13 WITH FORMAT: (400I10)            



                     BOUNDARY ARRAY FOR LAYER  13
 READING ON UNIT   13 WITH FORMAT: (400I10)            



                     BOUNDARY ARRAY FOR LAYER  14
 READING ON UNIT   13 WITH FORMAT: (400I10)            



                     BOUNDARY ARRAY FOR LAYER  15
 READING ON UNIT   13 WITH FORMAT: (400I10)            



                     BOUNDARY ARRAY FOR LAYER  16
 READING ON UNIT   13 WITH FORMAT: (400I10)            



                     BOUNDARY ARRAY FOR LAYER  17
 READING ON UNIT   13 WITH FORMAT: (400I10)            



                     BOUNDARY ARRAY FOR LAYER  18
 READING ON UNIT   13 WITH FORMAT: (400I10)            



                     BOUNDARY ARRAY FOR LAYER  19
 READING ON UNIT   13 WITH FORMAT: (400I10)            



                     BOUNDARY ARRAY FOR LAYER  20
 READING ON UNIT   13 WITH FORMAT: (400I10)            



                     BOUNDARY ARRAY FOR LAYER  21
 READING ON UNIT   13 WITH FORMAT: (400I10)            



                     BOUNDARY ARRAY FOR LAYER  22
 READING ON UNIT   13 WITH FORMAT: (400I10)            



                     BOUNDARY ARRAY FOR LAYER  23
 READING ON UNIT   13 WITH FORMAT: (400I10)            



                     BOUNDARY ARRAY FOR LAYER  24
 READING ON UNIT   13 WITH FORMAT: (400I10)            



                     BOUNDARY ARRAY FOR LAYER  25
 READING ON UNIT   13 WITH FORMAT: (400I10)            



                     BOUNDARY ARRAY FOR LAYER  26
 READING ON UNIT   13 WITH FORMAT: (400I10)            



                     BOUNDARY ARRAY FOR LAYER  27
 READING ON UNIT   13 WITH FORMAT: (400I10)            



                     BOUNDARY ARRAY FOR LAYER  28
 READING ON UNIT   13 WITH FORMAT: (400I10)            



                     BOUNDARY ARRAY FOR LAYER  29
 READING ON UNIT   13 WITH FORMAT: (400I10)            



                     BOUNDARY ARRAY FOR LAYER  30
 READING ON UNIT   13 WITH FORMAT: (400I10)            



                     BOUNDARY ARRAY FOR LAYER  31
 READING ON UNIT   13 WITH FORMAT: (400I10)            



                     BOUNDARY ARRAY FOR LAYER  32
 READING ON UNIT   13 WITH FORMAT: (400I10)            



                     BOUNDARY ARRAY FOR LAYER  33
 READING ON UNIT   13 WITH FORMAT: (400I10)            



                     BOUNDARY ARRAY FOR LAYER  34
 READING ON UNIT   13 WITH FORMAT: (400I10)            



                     BOUNDARY ARRAY FOR LAYER  35
 READING ON UNIT   13 WITH FORMAT: (400I10)            



                     BOUNDARY ARRAY FOR LAYER  36
 READING ON UNIT   13 WITH FORMAT: (400I10)            



                     BOUNDARY ARRAY FOR LAYER  37
 READING ON UNIT   13 WITH FORMAT: (400I10)            



                     BOUNDARY ARRAY FOR LAYER  38
 READING ON UNIT   13 WITH FORMAT: (400I10)            



                     BOUNDARY ARRAY FOR LAYER  39
 READING ON UNIT   13 WITH FORMAT: (400I10)            



                     BOUNDARY ARRAY FOR LAYER  40
 READING ON UNIT   13 WITH FORMAT: (400I10)            



                     BOUNDARY ARRAY FOR LAYER  41
 READING ON UNIT   13 WITH FORMAT: (400I10)            



                     BOUNDARY ARRAY FOR LAYER  42
 READING ON UNIT   13 WITH FORMAT: (400I10)            



                     BOUNDARY ARRAY FOR LAYER  43
 READING ON UNIT   13 WITH FORMAT: (400I10)            



                     BOUNDARY ARRAY FOR LAYER  44
 READING ON UNIT   13 WITH FORMAT: (400I10)            



                     BOUNDARY ARRAY FOR LAYER  45
 READING ON UNIT   13 WITH FORMAT: (400I10)            



                     BOUNDARY ARRAY FOR LAYER  46
 READING ON UNIT   13 WITH FORMAT: (400I10)            



                     BOUNDARY ARRAY FOR LAYER  47
 READING ON UNIT   13 WITH FORMAT: (400I10)            



                     BOUNDARY ARRAY FOR LAYER  48
 READING ON UNIT   13 WITH FORMAT: (400I10)            



                     BOUNDARY ARRAY FOR LAYER  49
 READING ON UNIT   13 WITH FORMAT: (400I10)            



                     BOUNDARY ARRAY FOR LAYER  50
 READING ON UNIT   13 WITH FORMAT: (400I10)            



                     BOUNDARY ARRAY FOR LAYER  51
 READING ON UNIT   13 WITH FORMAT: (400I10)            



                     BOUNDARY ARRAY FOR LAYER  52
 READING ON UNIT   13 WITH FORMAT: (400I10)            



                     BOUNDARY ARRAY FOR LAYER  53
 READING ON UNIT   13 WITH FORMAT: (400I10)            



                     BOUNDARY ARRAY FOR LAYER  54
 READING ON UNIT   13 WITH FORMAT: (400I10)            



                     BOUNDARY ARRAY FOR LAYER  55
 READING ON UNIT   13 WITH FORMAT: (400I10)            



                     BOUNDARY ARRAY FOR LAYER  56
 READING ON UNIT   13 WITH FORMAT: (400I10)            



                     BOUNDARY ARRAY FOR LAYER  57
 READING ON UNIT   13 WITH FORMAT: (400I10)            



                     BOUNDARY ARRAY FOR LAYER  58
 READING ON UNIT   13 WITH FORMAT: (400I10)            



                     BOUNDARY ARRAY FOR LAYER  59
 READING ON UNIT   13 WITH FORMAT: (400I10)            



                     BOUNDARY ARRAY FOR LAYER  60
 READING ON UNIT   13 WITH FORMAT: (400I10)            



                     BOUNDARY ARRAY FOR LAYER  61
 READING ON UNIT   13 WITH FORMAT: (400I10)            



                     BOUNDARY ARRAY FOR LAYER  62
 READING ON UNIT   13 WITH FORMAT: (400I10)            



                     BOUNDARY ARRAY FOR LAYER  63
 READING ON UNIT   13 WITH FORMAT: (400I10)            



                     BOUNDARY ARRAY FOR LAYER  64
 READING ON UNIT   13 WITH FORMAT: (400I10)            



                     BOUNDARY ARRAY FOR LAYER  65
 READING ON UNIT   13 WITH FORMAT: (400I10)            



                     BOUNDARY ARRAY FOR LAYER  66
 READING ON UNIT   13 WITH FORMAT: (400I10)            



                     BOUNDARY ARRAY FOR LAYER  67
 READING ON UNIT   13 WITH FORMAT: (400I10)            



                     BOUNDARY ARRAY FOR LAYER  68
 READING ON UNIT   13 WITH FORMAT: (400I10)            



                     BOUNDARY ARRAY FOR LAYER  69
 READING ON UNIT   13 WITH FORMAT: (400I10)            



                     BOUNDARY ARRAY FOR LAYER  70
 READING ON UNIT   13 WITH FORMAT: (400I10)            



                     BOUNDARY ARRAY FOR LAYER  71
 READING ON UNIT   13 WITH FORMAT: (400I10)            



                     BOUNDARY ARRAY FOR LAYER  72
 READING ON UNIT   13 WITH FORMAT: (400I10)            



                     BOUNDARY ARRAY FOR LAYER  73
 READING ON UNIT   13 WITH FORMAT: (400I10)            



                     BOUNDARY ARRAY FOR LAYER  74
 READING ON UNIT   13 WITH FORMAT: (400I10)            



                     BOUNDARY ARRAY FOR LAYER  75
 READING ON UNIT   13 WITH FORMAT: (400I10)            



                     BOUNDARY ARRAY FOR LAYER  76
 READING ON UNIT   13 WITH FORMAT: (400I10)            



                     BOUNDARY ARRAY FOR LAYER  77
 READING ON UNIT   13 WITH FORMAT: (400I10)            



                     BOUNDARY ARRAY FOR LAYER  78
 READING ON UNIT   13 WITH FORMAT: (400I10)            



                     BOUNDARY ARRAY FOR LAYER  79
 READING ON UNIT   13 WITH FORMAT: (400I10)            



                     BOUNDARY ARRAY FOR LAYER  80
 READING ON UNIT   13 WITH FORMAT: (400I10)            

 AQUIFER HEAD WILL BE SET TO  -999.99     AT ALL NO-FLOW NODES (IBOUND=0).



                       INITIAL HEAD FOR LAYER   1
 READING ON UNIT   13 WITH FORMAT: (400G15.6)          



                       INITIAL HEAD FOR LAYER   2
 READING ON UNIT   13 WITH FORMAT: (400G15.6)          



                       INITIAL HEAD FOR LAYER   3
 READING ON UNIT   13 WITH FORMAT: (400G15.6)          



                       INITIAL HEAD FOR LAYER   4
 READING ON UNIT   13 WITH FORMAT: (400G15.6)          



                       INITIAL HEAD FOR LAYER   5
 READING ON UNIT   13 WITH FORMAT: (400G15.6)          



                       INITIAL HEAD FOR LAYER   6
 READING ON UNIT   13 WITH FORMAT: (400G15.6)          



                       INITIAL HEAD FOR LAYER   7
 READING ON UNIT   13 WITH FORMAT: (400G15.6)          



                       INITIAL HEAD FOR LAYER   8
 READING ON UNIT   13 WITH FORMAT: (400G15.6)          



                       INITIAL HEAD FOR LAYER   9
 READING ON UNIT   13 WITH FORMAT: (400G15.6)          



                       INITIAL HEAD FOR LAYER  10
 READING ON UNIT   13 WITH FORMAT: (400G15.6)          



                       INITIAL HEAD FOR LAYER  11
 READING ON UNIT   13 WITH FORMAT: (400G15.6)          



                       INITIAL HEAD FOR LAYER  12
 READING ON UNIT   13 WITH FORMAT: (400G15.6)          



                       INITIAL HEAD FOR LAYER  13
 READING ON UNIT   13 WITH FORMAT: (400G15.6)          



                       INITIAL HEAD FOR LAYER  14
 READING ON UNIT   13 WITH FORMAT: (400G15.6)          



                       INITIAL HEAD FOR LAYER  15
 READING ON UNIT   13 WITH FORMAT: (400G15.6)          



                       INITIAL HEAD FOR LAYER  16
 READING ON UNIT   13 WITH FORMAT: (400G15.6)          



                       INITIAL HEAD FOR LAYER  17
 READING ON UNIT   13 WITH FORMAT: (400G15.6)          



                       INITIAL HEAD FOR LAYER  18
 READING ON UNIT   13 WITH FORMAT: (400G15.6)          



                       INITIAL HEAD FOR LAYER  19
 READING ON UNIT   13 WITH FORMAT: (400G15.6)          



                       INITIAL HEAD FOR LAYER  20
 READING ON UNIT   13 WITH FORMAT: (400G15.6)          



                       INITIAL HEAD FOR LAYER  21
 READING ON UNIT   13 WITH FORMAT: (400G15.6)          



                       INITIAL HEAD FOR LAYER  22
 READING ON UNIT   13 WITH FORMAT: (400G15.6)          



                       INITIAL HEAD FOR LAYER  23
 READING ON UNIT   13 WITH FORMAT: (400G15.6)          



                       INITIAL HEAD FOR LAYER  24
 READING ON UNIT   13 WITH FORMAT: (400G15.6)          



                       INITIAL HEAD FOR LAYER  25
 READING ON UNIT   13 WITH FORMAT: (400G15.6)          



                       INITIAL HEAD FOR LAYER  26
 READING ON UNIT   13 WITH FORMAT: (400G15.6)          



                       INITIAL HEAD FOR LAYER  27
 READING ON UNIT   13 WITH FORMAT: (400G15.6)          



                       INITIAL HEAD FOR LAYER  28
 READING ON UNIT   13 WITH FORMAT: (400G15.6)          



                       INITIAL HEAD FOR LAYER  29
 READING ON UNIT   13 WITH FORMAT: (400G15.6)          



                       INITIAL HEAD FOR LAYER  30
 READING ON UNIT   13 WITH FORMAT: (400G15.6)          



                       INITIAL HEAD FOR LAYER  31
 READING ON UNIT   13 WITH FORMAT: (400G15.6)          



                       INITIAL HEAD FOR LAYER  32
 READING ON UNIT   13 WITH FORMAT: (400G15.6)          



                       INITIAL HEAD FOR LAYER  33
 READING ON UNIT   13 WITH FORMAT: (400G15.6)          



                       INITIAL HEAD FOR LAYER  34
 READING ON UNIT   13 WITH FORMAT: (400G15.6)          



                       INITIAL HEAD FOR LAYER  35
 READING ON UNIT   13 WITH FORMAT: (400G15.6)          



                       INITIAL HEAD FOR LAYER  36
 READING ON UNIT   13 WITH FORMAT: (400G15.6)          



                       INITIAL HEAD FOR LAYER  37
 READING ON UNIT   13 WITH FORMAT: (400G15.6)          



                       INITIAL HEAD FOR LAYER  38
 READING ON UNIT   13 WITH FORMAT: (400G15.6)          



                       INITIAL HEAD FOR LAYER  39
 READING ON UNIT   13 WITH FORMAT: (400G15.6)          



                       INITIAL HEAD FOR LAYER  40
 READING ON UNIT   13 WITH FORMAT: (400G15.6)          



                       INITIAL HEAD FOR LAYER  41
 READING ON UNIT   13 WITH FORMAT: (400G15.6)          



                       INITIAL HEAD FOR LAYER  42
 READING ON UNIT   13 WITH FORMAT: (400G15.6)          



                       INITIAL HEAD FOR LAYER  43
 READING ON UNIT   13 WITH FORMAT: (400G15.6)          



                       INITIAL HEAD FOR LAYER  44
 READING ON UNIT   13 WITH FORMAT: (400G15.6)          



                       INITIAL HEAD FOR LAYER  45
 READING ON UNIT   13 WITH FORMAT: (400G15.6)          



                       INITIAL HEAD FOR LAYER  46
 READING ON UNIT   13 WITH FORMAT: (400G15.6)          



                       INITIAL HEAD FOR LAYER  47
 READING ON UNIT   13 WITH FORMAT: (400G15.6)          



                       INITIAL HEAD FOR LAYER  48
 READING ON UNIT   13 WITH FORMAT: (400G15.6)          



                       INITIAL HEAD FOR LAYER  49
 READING ON UNIT   13 WITH FORMAT: (400G15.6)          



                       INITIAL HEAD FOR LAYER  50
 READING ON UNIT   13 WITH FORMAT: (400G15.6)          



                       INITIAL HEAD FOR LAYER  51
 READING ON UNIT   13 WITH FORMAT: (400G15.6)          



                       INITIAL HEAD FOR LAYER  52
 READING ON UNIT   13 WITH FORMAT: (400G15.6)          



                       INITIAL HEAD FOR LAYER  53
 READING ON UNIT   13 WITH FORMAT: (400G15.6)          



                       INITIAL HEAD FOR LAYER  54
 READING ON UNIT   13 WITH FORMAT: (400G15.6)          



                       INITIAL HEAD FOR LAYER  55
 READING ON UNIT   13 WITH FORMAT: (400G15.6)          



                       INITIAL HEAD FOR LAYER  56
 READING ON UNIT   13 WITH FORMAT: (400G15.6)          



                       INITIAL HEAD FOR LAYER  57
 READING ON UNIT   13 WITH FORMAT: (400G15.6)          



                       INITIAL HEAD FOR LAYER  58
 READING ON UNIT   13 WITH FORMAT: (400G15.6)          



                       INITIAL HEAD FOR LAYER  59
 READING ON UNIT   13 WITH FORMAT: (400G15.6)          



                       INITIAL HEAD FOR LAYER  60
 READING ON UNIT   13 WITH FORMAT: (400G15.6)          



                       INITIAL HEAD FOR LAYER  61
 READING ON UNIT   13 WITH FORMAT: (400G15.6)          



                       INITIAL HEAD FOR LAYER  62
 READING ON UNIT   13 WITH FORMAT: (400G15.6)          



                       INITIAL HEAD FOR LAYER  63
 READING ON UNIT   13 WITH FORMAT: (400G15.6)          



                       INITIAL HEAD FOR LAYER  64
 READING ON UNIT   13 WITH FORMAT: (400G15.6)          



                       INITIAL HEAD FOR LAYER  65
 READING ON UNIT   13 WITH FORMAT: (400G15.6)          



                       INITIAL HEAD FOR LAYER  66
 READING ON UNIT   13 WITH FORMAT: (400G15.6)          



                       INITIAL HEAD FOR LAYER  67
 READING ON UNIT   13 WITH FORMAT: (400G15.6)          



                       INITIAL HEAD FOR LAYER  68
 READING ON UNIT   13 WITH FORMAT: (400G15.6)          



                       INITIAL HEAD FOR LAYER  69
 READING ON UNIT   13 WITH FORMAT: (400G15.6)          



                       INITIAL HEAD FOR LAYER  70
 READING ON UNIT   13 WITH FORMAT: (400G15.6)          



                       INITIAL HEAD FOR LAYER  71
 READING ON UNIT   13 WITH FORMAT: (400G15.6)          



                       INITIAL HEAD FOR LAYER  72
 READING ON UNIT   13 WITH FORMAT: (400G15.6)          



                       INITIAL HEAD FOR LAYER  73
 READING ON UNIT   13 WITH FORMAT: (400G15.6)          



                       INITIAL HEAD FOR LAYER  74
 READING ON UNIT   13 WITH FORMAT: (400G15.6)          



                       INITIAL HEAD FOR LAYER  75
 READING ON UNIT   13 WITH FORMAT: (400G15.6)          



                       INITIAL HEAD FOR LAYER  76
 READING ON UNIT   13 WITH FORMAT: (400G15.6)          



                       INITIAL HEAD FOR LAYER  77
 READING ON UNIT   13 WITH FORMAT: (400G15.6)          



                       INITIAL HEAD FOR LAYER  78
 READING ON UNIT   13 WITH FORMAT: (400G15.6)          



                       INITIAL HEAD FOR LAYER  79
 READING ON UNIT   13 WITH FORMAT: (400G15.6)          



                       INITIAL HEAD FOR LAYER  80
 READING ON UNIT   13 WITH FORMAT: (400G15.6)          
 # Output control package file for MODFLOW, generated by Flopy. Output control by words option

 OUTPUT CONTROL IS SPECIFIED ONLY AT TIME STEPS FOR WHICH OUTPUT IS DESIRED
 HEAD PRINT FORMAT CODE IS   0    DRAWDOWN PRINT FORMAT CODE IS   0
 HEADS WILL BE SAVED ON UNIT   51    DRAWDOWNS WILL BE SAVED ON UNIT   52

 LPF -- LAYER-PROPERTY FLOW PACKAGE, VERSION 7, 5/2/2005
         INPUT READ FROM UNIT   15
 # LPF for MODFLOW, generated by Flopy.
 CELL-BY-CELL FLOWS WILL BE SAVED ON UNIT   53
 HEAD AT CELLS THAT CONVERT TO DRY=  -2000.0    
 No named parameters
 CONSTANTCV OPTION:
 Constant vertical conductance for convertible layers

   LAYER FLAGS:
 LAYER       LAYTYP        LAYAVG         CHANI        LAYVKA        LAYWET
 ---------------------------------------------------------------------------
    1             4             0     1.000E+00             0             0
    2             4             0     1.000E+00             0             0
    3             4             0     1.000E+00             0             0
    4             4             0     1.000E+00             0             0
    5             4             0     1.000E+00             0             0
    6             4             0     1.000E+00             0             0
    7             4             0     1.000E+00             0             0
    8             4             0     1.000E+00             0             0
    9             4             0     1.000E+00             0             0
   10             4             0     1.000E+00             0             0
   11             4             0     1.000E+00             0             0
   12             4             0     1.000E+00             0             0
   13             4             0     1.000E+00             0             0
   14             4             0     1.000E+00             0             0
   15             4             0     1.000E+00             0             0
   16             4             0     1.000E+00             0             0
   17             4             0     1.000E+00             0             0
   18             4             0     1.000E+00             0             0
   19             4             0     1.000E+00             0             0
   20             4             0     1.000E+00             0             0
   21             4             0     1.000E+00             0             0
   22             4             0     1.000E+00             0             0
   23             4             0     1.000E+00             0             0
   24             4             0     1.000E+00             0             0
   25             4             0     1.000E+00             0             0
   26             4             0     1.000E+00             0             0
   27             4             0     1.000E+00             0             0
   28             4             0     1.000E+00             0             0
   29             4             0     1.000E+00             0             0
   30             4             0     1.000E+00             0             0
   31             4             0     1.000E+00             0             0
   32             4             0     1.000E+00             0             0
   33             4             0     1.000E+00             0             0
   34             4             0     1.000E+00             0             0
   35             4             0     1.000E+00             0             0
   36             4             0     1.000E+00             0             0
   37             4             0     1.000E+00             0             0
   38             4             0     1.000E+00             0             0
   39             4             0     1.000E+00             0             0
   40             4             0     1.000E+00             0             0
   41             4             0     1.000E+00             0             0
   42             4             0     1.000E+00             0             0
   43             4             0     1.000E+00             0             0
   44             4             0     1.000E+00             0             0
   45             4             0     1.000E+00             0             0
   46             4             0     1.000E+00             0             0
   47             4             0     1.000E+00             0             0
   48             4             0     1.000E+00             0             0
   49             4             0     1.000E+00             0             0
   50             4             0     1.000E+00             0             0
   51             4             0     1.000E+00             0             0
   52             4             0     1.000E+00             0             0
   53             4             0     1.000E+00             0             0
   54             4             0     1.000E+00             0             0
   55             4             0     1.000E+00             0             0
   56             4             0     1.000E+00             0             0
   57             4             0     1.000E+00             0             0