                                  MODFLOW-USG      
      U.S. GEOLOGICAL SURVEY MODULAR FINITE-DIFFERENCE GROUNDWATER FLOW MODEL
                            VERSION 1.5.00 02/27/2019

 LIST FILE: model01.lst
                         UNIT    3

 OPENING model01.bas
 FILE TYPE:BAS6   UNIT    4   STATUS:OLD    
 FORMAT:FORMATTED              ACCESS:SEQUENTIAL          

 OPENING model01.sms
 FILE TYPE:SMS   UNIT   10   STATUS:OLD    
 FORMAT:FORMATTED              ACCESS:SEQUENTIAL          

 OPENING model01.dis
 FILE TYPE:DISU   UNIT   11   STATUS:OLD    
 FORMAT:FORMATTED              ACCESS:SEQUENTIAL          

 OPENING model01.oc
 FILE TYPE:OC   UNIT   12   STATUS:OLD    
 FORMAT:FORMATTED              ACCESS:SEQUENTIAL          

 OPENING model01.lpf
 FILE TYPE:LPF   UNIT   13   STATUS:OLD    
 FORMAT:FORMATTED              ACCESS:SEQUENTIAL          

 OPENING model01.rch
 FILE TYPE:RCH   UNIT   15   STATUS:OLD    
 FORMAT:FORMATTED              ACCESS:SEQUENTIAL          

 OPENING model01.ghb
 FILE TYPE:GHB   UNIT   16   STATUS:OLD    
 FORMAT:FORMATTED              ACCESS:SEQUENTIAL          

 OPENING model01.cln
 FILE TYPE:CLN   UNIT   17   STATUS:OLD    
 FORMAT:FORMATTED              ACCESS:SEQUENTIAL          
#CLN 17 model01.cln.working                                                                                                                                                                                                                                                                                 

 OPENING top.ref
 FILE TYPE:DATA   UNIT   60   STATUS:UNKNOWN
 FORMAT:FORMATTED              ACCESS:SEQUENTIAL          

 OPENING bot.ref
 FILE TYPE:DATA   UNIT   61   STATUS:UNKNOWN
 FORMAT:FORMATTED              ACCESS:SEQUENTIAL          

 OPENING area.ref
 FILE TYPE:DATA   UNIT   62   STATUS:UNKNOWN
 FORMAT:FORMATTED              ACCESS:SEQUENTIAL          

 OPENING qt01.iac.dat
 FILE TYPE:DATA   UNIT   63   STATUS:UNKNOWN
 FORMAT:FORMATTED              ACCESS:SEQUENTIAL          

 OPENING qt01.ja.dat
 FILE TYPE:DATA   UNIT   64   STATUS:UNKNOWN
 FORMAT:FORMATTED              ACCESS:SEQUENTIAL          

 OPENING qt01.c1.dat
 FILE TYPE:DATA   UNIT   65   STATUS:UNKNOWN
 FORMAT:FORMATTED              ACCESS:SEQUENTIAL          

 OPENING qt01.c2.dat
 FILE TYPE:DATA   UNIT   66   STATUS:UNKNOWN
 FORMAT:FORMATTED              ACCESS:SEQUENTIAL          

 OPENING qt01.fahl.dat
 FILE TYPE:DATA   UNIT   67   STATUS:UNKNOWN
 FORMAT:FORMATTED              ACCESS:SEQUENTIAL          

 OPENING kx.ref
 FILE TYPE:DATA   UNIT   70   STATUS:UNKNOWN
 FORMAT:FORMATTED              ACCESS:SEQUENTIAL          

 OPENING kz.ref
 FILE TYPE:DATA   UNIT   71   STATUS:UNKNOWN
 FORMAT:FORMATTED              ACCESS:SEQUENTIAL          

 OPENING ss.ref
 FILE TYPE:DATA   UNIT   72   STATUS:UNKNOWN
 FORMAT:FORMATTED              ACCESS:SEQUENTIAL          

 OPENING sy.ref
 FILE TYPE:DATA   UNIT   73   STATUS:UNKNOWN
 FORMAT:FORMATTED              ACCESS:SEQUENTIAL          

 OPENING model01.cbb
 FILE TYPE:DATA(BINARY)   UNIT   50   STATUS:UNKNOWN
 FORMAT:BINARY                 ACCESS:SEQUENTIAL          

 OPENING model01.cln.cbb
 FILE TYPE:DATA(BINARY)   UNIT   51   STATUS:UNKNOWN
 FORMAT:BINARY                 ACCESS:SEQUENTIAL          

 OPENING model01.hds
 FILE TYPE:DATA(BINARY)   UNIT   30   STATUS:UNKNOWN
 FORMAT:BINARY                 ACCESS:SEQUENTIAL          

 OPENING model01.cln.hds
 FILE TYPE:DATA(BINARY)   UNIT   31   STATUS:UNKNOWN
 FORMAT:BINARY                 ACCESS:SEQUENTIAL          

 BAS -- BASIC PACKAGE-USG      1.5.00 02/27/2019                        INPUT READ FROM UNIT    4
 
 THE FREE FORMAT OPTION HAS BEEN SELECTED
 THE UNSTRUCTURED GRID OPTION HAS BEEN SELECTED

 DIS -- UNSTRUCTURED GRID DISCRETIZATION PACKAGE, VERSION 1 : 5/17/2010 - INPUT READ FROM UNIT   11
      39310 NODES        10 NLAY    267428 NJAG  VERT. SUBDISCRETIZATION INDEX, IVSD =  0
 INDEX FOR INPUT OF UNSTRUCTURED, FINITE-VOLUME CONNECTIVITY INFORMATION, IDSYMRD =   0
   10 STRESS PERIOD(S) IN SIMULATION
 MODEL TIME UNIT IS DAYS
 MODEL LENGTH UNIT IS FEET
  Confining bed flag for each layer:
   0   0   0   0   0   0   0   0   0   0

 CLN -- CONNECTED LINE NETWORK DISCRETIZATION PROCESS, VERSION 1, 3/3/2012 INPUT READ FROM UNIT   17
 OPTIONS LINE DETECTED.
 PRINT CLN IA AND JA OPTION: THE CLN IA AND JA ARRAYS WILL BE PRINTED TO LIST FILE.
 FLAG (0) OR MAXIMUM NUMBER OF LINEAR NODES (NCLN) =      1
 FLAG (-VE) OR NUMBER OF LINEAR NODES (+VE) (ICLNNDS) =     -1
 NUMBER OF LINEAR NODE TO MATRIX GRID CONNECTIONS (NCLNGWC) =     18

 CELL-BY-CELL FLOWS WILL BE SAVED ON UNIT    51(FLAG ICLNCB IS GREATER THAN ZERO)
 CLN HEAD OUTPUT WILL BE SAVED ON UNIT   31(FLAG ICLNHD IS GREATER THAN ZERO)
 CLN DDN OUTPUT WILL NOT BE SAVED OR PRINTED (FLAG ICLNDD IS EQUAL TO ZERO)
 CLN IBOUND OUTPUT WILL NOT BE SAVED OR PRINTED (FLAG ICLNIB IS EQUAL TO ZERO)



              NODES PER CLN SEGMENT
 READING ON UNIT   17 WITH FORMAT: (FREE)              

                     CONNECTED LINE NETWORK INFORMATION
                    ----------------------------------------
     CLN-NODE NO. CLNTYP ORIENTATION  CLN LENGTH    BOT ELEVATION         FANGLE         IFLIN           ICCWADI
     -----------  ------ ----------- -----------    -------------    -----------        ------    -------
              1      1          1    0.124000E+02   -0.500000E+02    0.000000E+00         -1          0
              2      1          1    0.740000E+01   -0.500000E+02    0.000000E+00         -1          0
              3      1          1    0.171000E+02   -0.500000E+02    0.000000E+00         -1          0
              4      1          1    0.176000E+02   -0.500000E+02    0.000000E+00         -1          0
              5      1          1    0.680000E+01   -0.500000E+02    0.000000E+00         -1          0
              6      1          1    0.245000E+02   -0.500000E+02    0.000000E+00         -1          0
              7      1          1    0.350000E+01   -0.500000E+02    0.000000E+00         -1          0
              8      1          1    0.210000E+02   -0.500000E+02    0.000000E+00         -1          0
              9      1          1    0.138000E+02   -0.500000E+02    0.000000E+00         -1          0
             10      1          1    0.107000E+02   -0.500000E+02    0.000000E+00         -1          0
             11      1          1    0.241000E+02   -0.500000E+02    0.000000E+00         -1          0
             12      1          1    0.400000E+00   -0.500000E+02    0.000000E+00         -1          0
             13      1          1    0.245000E+02   -0.500000E+02    0.000000E+00         -1          0
             14      1          1    0.990000E+01   -0.500000E+02    0.000000E+00         -1          0
             15      1          1    0.145000E+02   -0.500000E+02    0.000000E+00         -1          0
             16      1          1    0.202000E+02   -0.500000E+02    0.000000E+00         -1          0
             17      1          1    0.430000E+01   -0.500000E+02    0.000000E+00         -1          0
             18      1          1    0.245000E+02   -0.500000E+02    0.000000E+00         -1          0

                     CLN TO 3-D GRID CONNECTION INFORMATION
                    ----------------------------------------
     F-NODE NO. GW-NODE NO  EQTN. TYPE        FSKIN           FLENG         FANISO   ICGWADI
     ---------- ---------- -----------     ----------- ----------------- ---------------   ----------
              1       1308           3    0.400000E+02    0.124000E+02    0.100000E+01         0
              2       1330           3    0.400000E+02    0.740000E+01    0.100000E+01         0
              3       1319           3    0.400000E+02    0.171000E+02    0.100000E+01         0
              4       1321           3    0.400000E+02    0.176000E+02    0.100000E+01         0
              5       1320           3    0.400000E+02    0.680000E+01    0.100000E+01         0
              6       1326           3    0.400000E+02    0.245000E+02    0.100000E+01         0
              7       1328           3    0.400000E+02    0.350000E+01    0.100000E+01         0
              8       1325           3    0.400000E+02    0.210000E+02    0.100000E+01         0
              9       1408           3    0.400000E+02    0.138000E+02    0.100000E+01         0
             10       1407           3    0.400000E+02    0.107000E+02    0.100000E+01         0
             11       1409           3    0.400000E+02    0.241000E+02    0.100000E+01         0
             12       1369           3    0.400000E+02    0.400000E+00    0.100000E+01         0
             13       1375           3    0.400000E+02    0.245000E+02    0.100000E+01         0
             14       1377           3    0.400000E+02    0.990000E+01    0.100000E+01         0
             15       1376           3    0.400000E+02    0.145000E+02    0.100000E+01         0
             16       1395           3    0.400000E+02    0.202000E+02    0.100000E+01         0
             17       1392           3    0.400000E+02    0.430000E+01    0.100000E+01         0
             18       1394           3    0.400000E+02    0.245000E+02    0.100000E+01         0

                     CONDUIT NODE INFORMATION
                    ----------------------------------------
     CONDUIT NODE        RADIUS   CONDUIT SAT K
     ------------        ------   -------------
              1    0.300000E+00    0.323000E+11

 IA_CLN IS BELOW, 40I10
         1         3         6         9        12        15        18        21        24        27        30        33        36        39        42        45        48        51        53
 NJA_CLN =           52
 JA_CLN IS BELOW, 40I10
         1         2         2         1         3         3         2         4         4         3         5         5         4         6         6         5         7         7         6         8         8         7         9         9         8        10        10         9        11        11        10        12        12        11        13        13        12        14        14        13
        15        15        14        16        16        15        17        17        16        18        18        17
 

 DIS -- UNSTRUCTURED GRID DISCRETIZATION PACKAGE, VERSION 1 : 5/17/2010 - INPUT READ FROM UNIT   11



             NO. OF NODES PER LAYER
 READING ON UNIT   11 WITH FORMAT: (FREE)              



                                TOP FOR LAYER   1
 READING ON UNIT   60 WITH FORMAT: (FREE)              



                                TOP FOR LAYER   2
 READING ON UNIT   60 WITH FORMAT: (FREE)              



                                TOP FOR LAYER   3
 READING ON UNIT   60 WITH FORMAT: (FREE)              



                                TOP FOR LAYER   4
 READING ON UNIT   60 WITH FORMAT: (FREE)              



                                TOP FOR LAYER   5
 READING ON UNIT   60 WITH FORMAT: (FREE)              



                                TOP FOR LAYER   6
 READING ON UNIT   60 WITH FORMAT: (FREE)              



                                TOP FOR LAYER   7
 READING ON UNIT   60 WITH FORMAT: (FREE)              



                                TOP FOR LAYER   8
 READING ON UNIT   60 WITH FORMAT: (FREE)              



                                TOP FOR LAYER   9
 READING ON UNIT   60 WITH FORMAT: (FREE)              



                                TOP FOR LAYER  10
 READING ON UNIT   60 WITH FORMAT: (FREE)              



                                BOT FOR LAYER   1
 READING ON UNIT   61 WITH FORMAT: (FREE)              



                                BOT FOR LAYER   2
 READING ON UNIT   61 WITH FORMAT: (FREE)              



                                BOT FOR LAYER   3
 READING ON UNIT   61 WITH FORMAT: (FREE)              



                                BOT FOR LAYER   4
 READING ON UNIT   61 WITH FORMAT: (FREE)              



                                BOT FOR LAYER   5
 READING ON UNIT   61 WITH FORMAT: (FREE)              



                                BOT FOR LAYER   6
 READING ON UNIT   61 WITH FORMAT: (FREE)              



                                BOT FOR LAYER   7
 READING ON UNIT   61 WITH FORMAT: (FREE)              



                                BOT FOR LAYER   8
 READING ON UNIT   61 WITH FORMAT: (FREE)              



                                BOT FOR LAYER   9
 READING ON UNIT   61 WITH FORMAT: (FREE)              



                                BOT FOR LAYER  10
 READING ON UNIT   61 WITH FORMAT: (FREE)              



                               AREA FOR LAYER   1
 READING ON UNIT   62 WITH FORMAT: (FREE)              



                               AREA FOR LAYER   2
 READING ON UNIT   62 WITH FORMAT: (FREE)              



                               AREA FOR LAYER   3
 READING ON UNIT   62 WITH FORMAT: (FREE)              



                               AREA FOR LAYER   4
 READING ON UNIT   62 WITH FORMAT: (FREE)              



                               AREA FOR LAYER   5
 READING ON UNIT   62 WITH FORMAT: (FREE)              



                               AREA FOR LAYER   6
 READING ON UNIT   62 WITH FORMAT: (FREE)              



                               AREA FOR LAYER   7
 READING ON UNIT   62 WITH FORMAT: (FREE)              



                               AREA FOR LAYER   8
 READING ON UNIT   62 WITH FORMAT: (FREE)              



                               AREA FOR LAYER   9
 READING ON UNIT   62 WITH FORMAT: (FREE)              



                               AREA FOR LAYER  10
 READING ON UNIT   62 WITH FORMAT: (FREE)              



                                 IA
 READING ON UNIT   63 WITH FORMAT: (FREE)              



                                 JA
 READING ON UNIT   64 WITH FORMAT: (FREE)              



               CONNECTION LENGTH 12 FOR LAYER   1
 READING ON UNIT   65 WITH FORMAT: (FREE)              



                 PERPENDICULAR AREA
 READING ON UNIT   67 WITH FORMAT: (FREE)              


 STRESS PERIOD     LENGTH       TIME STEPS     MULTIPLIER FOR DELT    SS FLAG
 ----------------------------------------------------------------------------
        1         1.000000          1                    1.200         SS
        2         1.000000          1                    1.200         TR
        3         1.000000          1                    1.200         TR
        4         1.000000          1                    1.200         TR
        5         1.000000          1                    1.200         TR
        6         1.000000          1                    1.200         TR
        7         1.000000          1                    1.200         TR
        8         1.000000          1                    1.200         TR
        9         1.000000          1                    1.200         TR
       10         1.000000          1                    1.200         TR

 COMBINED STEADY-STATE AND TRANSIENT SIMULATION




           BOUNDARY ARRAY =         1 FOR LAYER   1

           BOUNDARY ARRAY =         1 FOR LAYER   2

           BOUNDARY ARRAY =         1 FOR LAYER   3

           BOUNDARY ARRAY =         1 FOR LAYER   4

           BOUNDARY ARRAY =         1 FOR LAYER   5

           BOUNDARY ARRAY =         1 FOR LAYER   6

           BOUNDARY ARRAY =         1 FOR LAYER   7

           BOUNDARY ARRAY =         1 FOR LAYER   8

           BOUNDARY ARRAY =         1 FOR LAYER   9

           BOUNDARY ARRAY =         1 FOR LAYER  10

 AQUIFER HEAD WILL BE SET TO  -99999.     AT ALL NO-FLOW NODES (IBOUND=0).

             INITIAL HEAD =   0.00000     FOR LAYER   1

             INITIAL HEAD =   0.00000     FOR LAYER   2

             INITIAL HEAD =   0.00000     FOR LAYER   3

             INITIAL HEAD =   0.00000     FOR LAYER   4

             INITIAL HEAD =   0.00000     FOR LAYER   5

             INITIAL HEAD =   0.00000     FOR LAYER   6

             INITIAL HEAD =   0.00000     FOR LAYER   7

             INITIAL HEAD =   0.00000     FOR LAYER   8

             INITIAL HEAD =   0.00000     FOR LAYER   9

             INITIAL HEAD =   0.00000     FOR LAYER  10

 OUTPUT CONTROL IS SPECIFIED ONLY AT TIME STEPS FOR WHICH OUTPUT IS DESIRED
 HEAD PRINT FORMAT CODE IS   0    DRAWDOWN PRINT FORMAT CODE IS   0
 HEADS WILL BE SAVED ON UNIT   30    DRAWDOWNS WILL BE SAVED ON UNIT    0

 LPF -- LAYER-PROPERTY FLOW PACKAGE, VERSION 7, 5/2/2005
         INPUT READ FROM UNIT   13
 CELL-BY-CELL FLOWS WILL BE SAVED ON UNIT   50
 HEAD AT CELLS THAT CONVERT TO DRY=  -99999.    
 No named parameters
 IKCFLAG=0, NODAL INPUT OF HY AND CV
 CONSTANTCV OPTION:
 Constant vertical conductance for convertible layers
 NOVFC OPTION:
 Do not apply the vertical flow correction

   LAYER FLAGS:
 LAYER       LAYTYP        LAYAVG         CHANI        LAYVKA        LAYWET
 ---------------------------------------------------------------------------
    1             4             0     3.333E-01             0             0
    2             4             0     3.333E-01             0             0
    3             4             0     3.333E-01             0             0
    4             4             0     3.333E-01             0             0
    5             4             0     3.333E-01             0             0
    6             4             0     3.333E-01             0             0
    7             4             0     3.333E-01             0             0
    8             4             0     3.333E-01             0             0
    9             4             0     3.333E-01             0             0
   10             4             0     3.333E-01             0             0

   INTERPRETATION OF LAYER FLAGS:
                        INTERBLOCK     HORIZONTAL    DATA IN
         LAYER TYPE   TRANSMISSIVITY   ANISOTROPY   ARRAY VKA   WETTABILITY
 LAYER      (LAYTYP)      (LAYAVG)       (CHANI)      (LAYVKA)      (LAYWET)
 ---------------------------------------------------------------------------
    1      UPSTREAM      HARMONIC     3.333E-01    VERTICAL K  NON-WETTABLE
    2      UPSTREAM      HARMONIC     3.333E-01    VERTICAL K  NON-WETTABLE
    3      UPSTREAM      HARMONIC     3.333E-01    VERTICAL K  NON-WETTABLE
    4      UPSTREAM      HARMONIC     3.333E-01    VERTICAL K  NON-WETTABLE
    5      UPSTREAM      HARMONIC     3.333E-01    VERTICAL K  NON-WETTABLE
    6      UPSTREAM      HARMONIC     3.333E-01    VERTICAL K  NON-WETTABLE
    7      UPSTREAM      HARMONIC     3.333E-01    VERTICAL K  NON-WETTABLE
    8      UPSTREAM      HARMONIC     3.333E-01    VERTICAL K  NON-WETTABLE
    9      UPSTREAM      HARMONIC     3.333E-01    VERTICAL K  NON-WETTABLE
   10      UPSTREAM      HARMONIC     3.333E-01    VERTICAL K  NON-WETTABLE

 WETTING CAPABILITY IS NOT ACTIVE IN ANY LAYER

               FACE ANGLE =   1.57080    



              HYD. COND. ALONG ROWS FOR LAYER   1
 READING ON UNIT   70 WITH FORMAT: (FREE)              



                VERTICAL HYD. COND. FOR LAYER   1
 READING ON UNIT   71 WITH FORMAT: (FREE)              



                   SPECIFIC STORAGE FOR LAYER   1
 READING ON UNIT   72 WITH FORMAT: (FREE)              



                     SPECIFIC YIELD FOR LAYER   1
 READING ON UNIT   73 WITH FORMAT: (FREE)              



              HYD. COND. ALONG ROWS FOR LAYER   2
 READING ON UNIT   70 WITH FORMAT: (FREE)              



                VERTICAL HYD. COND. FOR LAYER   2
 READING ON UNIT   71 WITH FORMAT: (FREE)              



                   SPECIFIC STORAGE FOR LAYER   2
 READING ON UNIT   72 WITH FORMAT: (FREE)              



                     SPECIFIC YIELD FOR LAYER   2
 READING ON UNIT   73 WITH FORMAT: (FREE)              



              HYD. COND. ALONG ROWS FOR LAYER   3
 READING ON UNIT   70 WITH FORMAT: (FREE)              



                VERTICAL HYD. COND. FOR LAYER   3
 READING ON UNIT   71 WITH FORMAT: (FREE)              



                   SPECIFIC STORAGE FOR LAYER   3
 READING ON UNIT   72 WITH FORMAT: (FREE)              



                     SPECIFIC YIELD FOR LAYER   3
 READING ON UNIT   73 WITH FORMAT: (FREE)              



              HYD. COND. ALONG ROWS FOR LAYER   4
 READING ON UNIT   70 WITH FORMAT: (FREE)              



                VERTICAL HYD. COND. FOR LAYER   4
 READING ON UNIT   71 WITH FORMAT: (FREE)              



                   SPECIFIC STORAGE FOR LAYER   4
 READING ON UNIT   72 WITH FORMAT: (FREE)              



                     SPECIFIC YIELD FOR LAYER   4
 READING ON UNIT   73 WITH FORMAT: (FREE)              



              HYD. COND. ALONG ROWS FOR LAYER   5
 READING ON UNIT   70 WITH FORMAT: (FREE)              



                VERTICAL HYD. COND. FOR LAYER   5
 READING ON UNIT   71 WITH FORMAT: (FREE)              



                   SPECIFIC STORAGE FOR LAYER   5
 READING ON UNIT   72 WITH FORMAT: (FREE)              



                     SPECIFIC YIELD FOR LAYER   5
 READING ON UNIT   73 WITH FORMAT: (FREE)              



              HYD. COND. ALONG ROWS FOR LAYER   6
 READING ON UNIT   70 WITH FORMAT: (FREE)              



                VERTICAL HYD. COND. FOR LAYER   6
 READING ON UNIT   71 WITH FORMAT: (FREE)              



                   SPECIFIC STORAGE FOR LAYER   6
 READING ON UNIT   72 WITH FORMAT: (FREE)              



                     SPECIFIC YIELD FOR LAYER   6
 READING ON UNIT   73 WITH FORMAT: (FREE)              



              HYD. COND. ALONG ROWS FOR LAYER   7
 READING ON UNIT   70 WITH FORMAT: (FREE)              



                VERTICAL HYD. COND. FOR LAYER   7
 READING ON UNIT   71 WITH FORMAT: (FREE)              



                   SPECIFIC STORAGE FOR LAYER   7
 READING ON UNIT   72 WITH FORMAT: (FREE)              



                     SPECIFIC YIELD FOR LAYER   7
 READING ON UNIT   73 WITH FORMAT: (FREE)              



              HYD. COND. ALONG ROWS FOR LAYER   8
 READING ON UNIT   70 WITH FORMAT: (FREE)              



                VERTICAL HYD. COND. FOR LAYER   8
 READING ON UNIT   71 WITH FORMAT: (FREE)              



                   SPECIFIC STORAGE FOR LAYER   8
 READING ON UNIT   72 WITH FORMAT: (FREE)              



                     SPECIFIC YIELD FOR LAYER   8
 READING ON UNIT   73 WITH FORMAT: (FREE)              



              HYD. COND. ALONG ROWS FOR LAYER   9
 READING ON UNIT   70 WITH FORMAT: (FREE)              



                VERTICAL HYD. COND. FOR LAYER   9
 READING ON UNIT   71 WITH FORMAT: (FREE)              



                   SPECIFIC STORAGE FOR LAYER   9
 READING ON UNIT   72 WITH FORMAT: (FREE)              



                     SPECIFIC YIELD FOR LAYER   9
 READING ON UNIT   73 WITH FORMAT: (FREE)              



              HYD. COND. ALONG ROWS FOR LAYER  10
 READING ON UNIT   70 WITH FORMAT: (FREE)              



                VERTICAL HYD. COND. FOR LAYER  10
 READING ON UNIT   71 WITH FORMAT: (FREE)              



                   SPECIFIC STORAGE FOR LAYER  10
 READING ON UNIT   72 WITH FORMAT: (FREE)              



                     SPECIFIC YIELD FOR LAYER  10
 READING ON UNIT   73 WITH FORMAT: (FREE)              

 CLN -- CONDUIT DOMAIN FLOW PACKAGE, VERSION 1, 5/17/2010 INPUT READ FROM UNIT   17

  CONDUIT BOUNDARY ARRAY  =         1

    CONDUIT INITIAL HEAD  =   50.0000    

 GHB -- GENERAL-HEAD BOUNDARY PACKAGE, VERSION 7, 5/2/2005
         INPUT READ FROM UNIT   16
 No named parameters
 MAXIMUM OF   1960 ACTIVE GHB CELLS AT ONE TIME
 CELL-BY-CELL FLOWS WILL BE SAVED ON UNIT   50
 LISTS OF GENERAL-HEAD BOUNDARY CELLS WILL NOT BE PRINTED


     0 GHB parameters

 RCH -- RECHARGE PACKAGE, VERSION 7, 5/2/2005 INPUT READ FROM UNIT   15
 No named parameters
 OPTION 3 -- RECHARGE TO HIGHEST ACTIVE NODE IN EACH VERTICAL COLUMN
 CELL-BY-CELL FLOWS WILL BE SAVED ON UNIT   50


     0 Recharge parameters

 SMS -- SPARSE MATRIX SOLVER PACKAGE, VERSION 7, 5/2/2005
         INPUT READ FROM UNIT 10
 No named parameters
 ALL SOLVER INPUT DATA WILL BE READ 
FROM THE SOLVER INPUT FILE. 
 OUTER ITERATION CONVERGENCE CRITERION (HCLOSE) =    0.100000E-07
 INNER ITERATION CONVERGENCE CRITERION (HICLOSE) =    0.100000E-05
 MAXIMUM NUMBER OF OUTER ITERATIONS (MXITER)     =       200
 MAXIMUM NUMBER OF INNER ITERATIONS (ITER1)      =       100
 SOLVER PRINTOUT INDEX             (IPRSMS)      =         1
 NONLINEAR ITERATION METHOD    (NONLINMETH)      =         1
 LINEAR SOLUTION METHOD           (LINMETH)      =         1
 D-B-D WEIGHT REDUCTION FACTOR      (THETA)      =    0.700000E+00
 D-B-D WEIGHT INCREASE INCREMENT    (KAPPA)      =    0.700000E-01
 D-B-D PREVIOUS HISTORY FACTOR      (GAMMA)      =    0.100000E+00
 MOMENTUM TERM                  (AMOMENTUM)      =    0.000000E+00
 MAXIMUM NUMBER OF BACKTRACKS    (NUMTRACK)      =       200
 BACKTRACKING TOLERANCE FACTOR       (BTOL)      =    0.110000E+01
 BACKTRACKING REDUCTION FACTOR     (BREDUC)      =    0.200000E+00
 BACKTRACKING RESIDUAL LIMIT      (RES_LIM)      =    0.100000E+01
 ***Newton Linearization will be used***
 
 ***XMD linear solver will be used***
 XMD -- LINEAR SOLUTION BY XMD PACKAGE VERSION 1.30
     BY MOTOMU IBARAKI, OHIO STATE UNIVERSITY, COLOMBUS, OH
                 INPUT READ FROM UNIT 10
 ACCELERATION METHOD                    (IACL) =         1
 EQUATION ORDERING FLAG               (NORDER) =         0
 LEVEL OF FILL                         (LEVEL) =         7
 MAXIMUM NUMBER OF ORTHOGONALIZATIONS  (NORTH) =        14
 INDEX FOR USING REDUCED SYSTEM      (IREDSYS) =         0
 RESID. REDUCTION CONVERGE CRITERION  (RRCTOL) =  0.000000E+00
 INDEX FOR USING DROP TOLERANCE     (IDROPTOL) =         1
 DROP TOLERANCE VALUE                 ((EPSRN) =  0.100000E-02
 
1
                            STRESS PERIOD NO.    1, LENGTH =   1.000000    
                            -----------------------------------------------

                              NUMBER OF TIME STEPS =     1

                               MULTIPLIER FOR DELT =     1.200

                            INITIAL TIME STEP SIZE =   1.000000    

 GHB -- GENERAL-HEAD BOUNDARY PACKAGE, VERSION 7, 5/2/2005
         INPUT READ FROM UNIT   16

   1960 GHB CELLS

 RCH -- RECHARGE PACKAGE, VERSION 7, 5/2/2005 INPUT READ FROM UNIT   15

                 RECHARGE =  2.281542E-04
 
 SOLVING FOR HEAD 


 OUTER ITERATION SUMMARY
 -----------------------
 BT: Backtracking; LA: Linear Acceleration; UR: Under-relaxation

    Outer-Iteration  Inner-Iteration  Backtracking  Number of        Incoming       Outgoing  Maximum Head Change     Maximum Head Change
        Number           Count           Flag       Backtracks       Residual       Residual           Value              Location
BT         1                             0             0          0.134516E+12     0.134516E+12
LA         1               57                                                                         1.00400                  2699           GWF-node number
LA         1               57                                                                        -49.0021                    18           CLN-node number
UR         1                                                                                          1.00400                  2699           GWF-node number
UR         1                                                                                         -49.0021                    18           CLN-node number
BT         2                             0             0          0.449640E-05     0.449640E-05
LA         2                1                                                                        0.208397E-06              1409           GWF-node number
LA         2                1                                                                        0.238584E-06                 1           CLN-node number
UR         2                                                                                         0.208397E-06              1409           GWF-node number
UR         2                                                                                         0.167009E-06                 1           CLN-node number
BT         3                             0             0          0.370273E-05     0.370273E-05
LA         3                1                                                                        0.884679E-07              1293           GWF-node number
LA         3                1                                                                        0.191849E-06                12           CLN-node number
UR         3                                                                                         0.884679E-07              1293           GWF-node number
UR         3                                                                                         0.147724E-06                12           CLN-node number
BT         4                             0             0          0.388346E-05     0.388346E-05
LA         4                1                                                                        0.919736E-07              1411           GWF-node number
LA         4                1                                                                        0.763795E-07                 2           CLN-node number
UR         4                                                                                         0.919736E-07              1411           GWF-node number
UR         4                                                                                         0.641587E-07                 2           CLN-node number
BT         5                             0             0          0.318154E-05     0.318154E-05