# MODFLOW-USG Layer Property Flow (LPF) Package
 0 2.000000e+030 0 0      CONSTANTCV NOVFC
 1
 0
 1.000000e+000
 0
 0
INTERNAL  1.000000e+000  (FREE)  -1  Kx Layer 1
 2.000000e-003 2.000000e-003 0.000000e+000 0.000000e+000 0.000000e+000 0.000000e+000 0.000000e+000 0.000000e+000 0.000000e+000 0.000000e+000
 4.000000e-004 2.000000e-003 2.000000e-003 0.000000e+000 0.000000e+000 4.000000e-004 4.000000e-004 4.000000e-004 0.000000e+000 0.000000e+000
 0.000000e+000 4.000000e-004 2.000000e-003 2.000000e-003 4.000000e-004 4.000000e-004 4.000000e-004 4.000000e-004 0.000000e+000 0.000000e+000
 4.000000e-004 4.000000e-004 4.000000e-004 2.000000e-003 2.000000e-003 2.000000e-003 4.000000e-004 4.000000e-004 4.000000e-004 0.000000e+000
 4.000000e-004 4.000000e-004 4.000000e-004 2.000000e-003 2.000000e-003 2.000000e-003 2.000000e-003 2.000000e-003 2.000000e-003 2.000000e-003
 4.000000e-004 4.000000e-004 4.000000e-004 2.000000e-003 2.000000e-003 2.000000e-003 2.000000e-003 2.000000e-003 4.000000e-004 4.000000e-004
 4.000000e-004 4.000000e-004 4.000000e-004 2.000000e-003 2.000000e-003 2.000000e-003 2.000000e-003 2.000000e-003 4.000000e-004 0.000000e+000
 0.000000e+000 4.000000e-004 4.000000e-004 2.000000e-003 2.000000e-003 2.000000e-003 2.000000e-003 4.000000e-004 4.000000e-004 0.000000e+000
 0.000000e+000 4.000000e-004 4.000000e-004 2.000000e-003 2.000000e-003 2.000000e-003 2.000000e-003 4.000000e-004 4.000000e-004 0.000000e+000
 0.000000e+000 4.000000e-004 4.000000e-004 2.000000e-003 2.000000e-003 2.000000e-003 2.000000e-003 4.000000e-004 4.000000e-004 4.000000e-004
 0.000000e+000 4.000000e-004 4.000000e-004 2.000000e-003 2.000000e-003 2.000000e-003 2.000000e-003 4.000000e-004 4.000000e-004 0.000000e+000
 4.000000e-004 4.000000e-004 2.000000e-003 2.000000e-003 2.000000e-003 2.000000e-003 2.000000e-003 4.000000e-004 4.000000e-004 0.000000e+000
 2.000000e-003 2.000000e-003 2.000000e-003 2.000000e-003 2.000000e-003 2.000000e-003 2.000000e-003 2.000000e-003 2.000000e-003 0.000000e+000
 0.000000e+000 4.000000e-004 4.000000e-004 4.000000e-004 4.000000e-004 4.000000e-004 4.000000e-004 4.000000e-004 2.000000e-003 0.000000e+000
 0.000000e+000 0.000000e+000 4.000000e-004 4.000000e-004 4.000000e-004 4.000000e-004 0.000000e+000 0.000000e+000 0.000000e+000 0.000000e+000
INTERNAL  1.000000e+000  (FREE)  -1  Kz Layer 1
 2.000000e-003 2.000000e-003 0.000000e+000 0.000000e+000 0.000000e+000 0.000000e+000 0.000000e+000 0.000000e+000 0.000000e+000 0.000000e+000
 4.000000e-004 2.000000e-003 2.000000e-003 0.000000e+000 0.000000e+000 4.000000e-004 4.000000e-004 4.000000e-004 0.000000e+000 0.000000e+000
 0.000000e+000 4.000000e-004 2.000000e-003 2.000000e-003 4.000000e-004 4.000000e-004 4.000000e-004 4.000000e-004 0.000000e+000 0.000000e+000
 4.000000e-004 4.000000e-004 4.000000e-004 2.000000e-003 2.000000e-003 2.000000e-003 4.000000e-004 4.000000e-004 4.000000e-004 0.000000e+000
 4.000000e-004 4.000000e-004 4.000000e-004 2.000000e-003 2.000000e-003 2.000000e-003 2.000000e-003 2.000000e-003 2.000000e-003 2.000000e-003
 4.000000e-004 4.000000e-004 4.000000e-004 2.000000e-003 2.000000e-003 2.000000e-003 2.000000e-003 2.000000e-003 4.000000e-004 4.000000e-004
 4.000000e-004 4.000000e-004 4.000000e-004 2.000000e-003 2.000000e-003 2.000000e-003 2.000000e-003 2.000000e-003 4.000000e-004 0.000000e+000
 0.000000e+000 4.000000e-004 4.000000e-004 2.000000e-003 2.000000e-003 2.000000e-003 2.000000e-003 4.000000e-004 4.000000e-004 0.000000e+000
 0.000000e+000 4.000000e-004 4.000000e-004 2.000000e-003 2.000000e-003 2.000000e-003 2.000000e-003 4.000000e-004 4.000000e-004 0.000000e+000
 0.000000e+000 4.000000e-004 4.000000e-004 2.000000e-003 2.000000e-003 2.000000e-003 2.000000e-003 4.000000e-004 4.000000e-004 4.000000e-004
 0.000000e+000 4.000000e-004 4.000000e-004 2.000000e-003 2.000000e-003 2.000000e-003 2.000000e-003 4.000000e-004 4.000000e-004 0.000000e+000
 4.000000e-004 4.000000e-004 2.000000e-003 2.000000e-003 2.000000e-003 2.000000e-003 2.000000e-003 4.000000e-004 4.000000e-004 0.000000e+000
 2.000000e-003 2.000000e-003 2.000000e-003 2.000000e-003 2.000000e-003 2.000000e-003 2.000000e-003 2.000000e-003 2.000000e-003 0.000000e+000
 0.000000e+000 4.000000e-004 4.000000e-004 4.000000e-004 4.000000e-004 4.000000e-004 4.000000e-004 4.000000e-004 2.000000e-003 0.000000e+000
 0.000000e+000 0.000000e+000 4.000000e-004 4.000000e-004 4.000000e-004 4.000000e-004 0.000000e+000 0.000000e+000 0.000000e+000 0.000000e+000
INTERNAL  1.000000e+000  (FREE)  -1  Ss Layer 1
 1.000000e-006 1.000000e-006 1.000000e-006 1.000000e-006 1.000000e-006 1.000000e-006 1.000000e-006 1.000000e-006 1.000000e-006 1.000000e-006
 1.000000e-006 1.000000e-006 1.000000e-006 1.000000e-006 1.000000e-006 1.000000e-006 1.000000e-006 1.000000e-006 1.000000e-006 1.000000e-006
 1.000000e-006 1.000000e-006 1.000000e-006 1.000000e-006 1.000000e-006 1.000000e-006 1.000000e-006 1.000000e-006 1.000000e-006 1.000000e-006
 1.000000e-006 1.000000e-006 1.000000e-006 1.000000e-006 1.000000e-006 1.000000e-006 1.000000e-006 1.000000e-006 1.000000e-006 1.000000e-006
 1.000000e-006 1.000000e-006 1.000000e-006 1.000000e-006 1.000000e-006 1.000000e-006 1.000000e-006 1.000000e-006 1.000000e-006 1.000000e-006
 1.000000e-006 1.000000e-006 1.000000e-006 1.000000e-006 1.000000e-006 1.000000e-006 1.000000e-006 1.000000e-006 1.000000e-006 1.000000e-006
 1.000000e-006 1.000000e-006 1.000000e-006 1.000000e-006 1.000000e-006 1.000000e-006 1.000000e-006 1.000000e-006 1.000000e-006 1.000000e-006
 1.000000e-006 1.000000e-006 1.000000e-006 1.000000e-006 1.000000e-006 1.000000e-006 1.000000e-006 1.000000e-006 1.000000e-006 1.000000e-006
 1.000000e-006 1.000000e-006 1.000000e-006 1.000000e-006 1.000000e-006 1.000000e-006 1.000000e-006 1.000000e-006 1.000000e-006 1.000000e-006
 1.000000e-006 1.000000e-006 1.000000e-006 1.000000e-006 1.000000e-006 1.000000e-006 1.000000e-006 1.000000e-006 1.000000e-006 1.000000e-006
 1.000000e-006 1.000000e-006 1.000000e-006 1.000000e-006 1.000000e-006 1.000000e-006 1.000000e-006 1.000000e-006 1.000000e-006 1.000000e-006
 1.000000e-006 1.000000e-006 1.000000e-006 1.000000e-006 1.000000e-006 1.000000e-006 1.000000e-006 1.000000e-006 1.000000e-006 1.000000e-006
 1.000000e-006 1.000000e-006 1.000000e-006 1.000000e-006 1.000000e-006 1.000000e-006 1.000000e-006 1.000000e-006 1.000000e-006 1.000000e-006
 1.000000e-006 1.000000e-006 1.000000e-006 1.000000e-006 1.000000e-006 1.000000e-006 1.000000e-006 1.000000e-006 1.000000e-006 1.000000e-006
 1.000000e-006 1.000000e-006 1.000000e-006 1.000000e-006 1.000000e-006 1.000000e-006 1.000000e-006 1.000000e-006 1.000000e-006 1.000000e-006
INTERNAL  1.000000e+000  (FREE)  -1  Sy Layer 1
 2.000000e-001 2.000000e-001 0.000000e+000 0.000000e+000 0.000000e+000 0.000000e+000 0.000000e+000 0.000000e+000 0.000000e+000 0.000000e+000
 1.000000e-001 2.000000e-001 2.000000e-001 0.000000e+000 0.000000e+000 1.000000e-001 1.000000e-001 1.000000e-001 0.000000e+000 0.000000e+000
 0.000000e+000 1.000000e-001 2.000000e-001 2.000000e-001 1.000000e-001 1.000000e-001 1.000000e-001 1.000000e-001 0.000000e+000 0.000000e+000
 1.000000e-001 1.000000e-001 1.000000e-001 2.000000e-001 2.000000e-001 2.000000e-001 1.000000e-001 1.000000e-001 1.000000e-001 0.000000e+000
 1.000000e-001 1.000000e-001 1.000000e-001 2.000000e-001 2.000000e-001 2.000000e-001 2.000000e-001 2.000000e-001 2.000000e-001 2.000000e-001
 1.000000e-001 1.000000e-001 1.000000e-001 2.000000e-001 2.000000e-001 2.000000e-001 2.000000e-001 2.000000e-001 1.000000e-001 1.000000e-001
 1.000000e-001 1.000000e-001 1.000000e-001 2.000000e-001 2.000000e-001 2.000000e-001 2.000000e-001 2.000000e-001 1.000000e-001 0.000000e+000
 0.000000e+000 1.000000e-001 1.000000e-001 2.000000e-001 2.000000e-001 2.000000e-001 2.000000e-001 1.000000e-001 1.000000e-001 0.000000e+000
 0.000000e+000 1.000000e-001 1.000000e-001 2.000000e-001 2.000000e-001 2.000000e-001 2.000000e-001 1.000000e-001 1.000000e-001 0.000000e+000
 0.000000e+000 1.000000e-001 1.000000e-001 2.000000e-001 2.000000e-001 2.000000e-001 2.000000e-001 1.000000e-001 1.000000e-001 1.000000e-001
 0.000000e+000 1.000000e-001 1.000000e-001 2.000000e-001 2.000000e-001 2.000000e-001 2.000000e-001 1.000000e-001 1.000000e-001 0.000000e+000
 1.000000e-001 1.000000e-001 2.000000e-001 2.000000e-001 2.000000e-001 2.000000e-001 2.000000e-001 1.000000e-001 1.000000e-001 0.000000e+000
 2.000000e-001 2.000000e-001 2.000000e-001 2.000000e-001 2.000000e-001 2.000000e-001 2.000000e-001 2.000000e-001 2.000000e-001 0.000000e+000
 0.000000e+000 1.000000e-001 1.000000e-001 1.000000e-001 1.000000e-001 1.000000e-001 1.000000e-001 1.000000e-001 2.000000e-001 0.000000e+000
 0.000000e+000 0.000000e+000 1.000000e-001 1.000000e-001 1.000000e-001 1.000000e-001 0.000000e+000 0.000000e+000 0.000000e+000 0.000000e+000
