# MODFLOW-USGs GHB Package
         2        60  MXACTB IGHBCB
         2         0           ITMP NP -- Stress Period   1
         121 988.0     0.038
         139 1045.0     0.038
        -1         0           ITMP NP  -- Stress Period  2
        -1         0           ITMP NP  -- Stress Period  3
        -1         0           ITMP NP  -- Stress Period  4
        -1         0           ITMP NP  -- Stress Period  5
        -1         0           ITMP NP  -- Stress Period  6
