# MODFLOW-USG Constant-Head Boundary Package (CHD)
  1                        Item 2: MXACTC
  1   0                    Item 5: ITMP NP, stress period 1
  136 1010.0 1012.0        Item 6: lay row col Shead Ehead
  1   0                    Item 5: ITMP NP, stress period 2
  136 1012.0 1016.0        Item 6: lay row col Shead Ehead
  1   0                    Item 5: ITMP NP, stress period 3
  136 1016.0 1016.0        Item 6: lay row col Shead Ehead
 -1   0                    Item 5: ITMP NP, stress period 4
 -1   0                    Item 5: ITMP NP, stress period 5
  1   0                    Item 5: ITMP NP, stress period 6
  136 1016.0 1020.0        Item 6: lay row col Shead Ehead

