# NWT for MODFLOW-NWT, generated by Flopy.
#  HEADTOL   FLUXTOL MAXITEROUT THICKFACT LINMETH IPRNWT IBOTAV OPTIONS 
   1.0e-06   5.0e+02        100   1.0e-05       1      1      1  SIMPLE 
