# MODFLOW-USGs Recharge Package
 3 0
 1
INTERNAL  1.000000e+000  (FREE)  -1  RECHARGE
 2.500000e-010 1.000000e-009 0.000000e+000 0.000000e+000 0.000000e+000 0.000000e+000 0.000000e+000 0.000000e+000 0.000000e+000 0.000000e+000
 1.000000e-009 2.500000e-010 1.000000e-009 0.000000e+000 0.000000e+000 4.000000e-009 4.000000e-009 4.000000e-009 0.000000e+000 0.000000e+000
 0.000000e+000 1.000000e-009 2.500000e-010 1.000000e-009 1.000000e-009 2.500000e-010 2.500000e-010 2.500000e-010 0.000000e+000 0.000000e+000
 4.000000e-009 2.500000e-010 2.500000e-010 2.500000e-010 2.500000e-010 2.500000e-010 2.500000e-010 2.500000e-010 1.000000e-009 0.000000e+000
 4.000000e-009 2.500000e-010 2.500000e-010 2.500000e-010 2.500000e-010 2.500000e-010 2.500000e-010 2.500000e-010 2.500000e-010 2.500000e-010
 1.000000e-009 2.500000e-010 2.500000e-010 2.500000e-010 2.500000e-010 2.500000e-010 2.500000e-010 2.500000e-010 2.500000e-010 1.000000e-009
 1.000000e-009 2.500000e-010 2.500000e-010 2.500000e-010 2.500000e-010 2.500000e-010 2.500000e-010 2.500000e-010 1.000000e-009 0.000000e+000
 0.000000e+000 1.000000e-009 2.500000e-010 2.500000e-010 2.500000e-010 2.500000e-010 2.500000e-010 2.500000e-010 1.000000e-009 0.000000e+000
 0.000000e+000 1.000000e-009 2.500000e-010 2.500000e-010 2.500000e-010 2.500000e-010 2.500000e-010 2.500000e-010 1.000000e-009 0.000000e+000
 0.000000e+000 1.000000e-009 2.500000e-010 2.500000e-010 2.500000e-010 2.500000e-010 2.500000e-010 2.500000e-010 2.500000e-010 4.000000e-009
 0.000000e+000 1.000000e-009 2.500000e-010 2.500000e-010 2.500000e-010 2.500000e-010 2.500000e-010 2.500000e-010 1.000000e-009 0.000000e+000
 1.000000e-009 2.500000e-010 2.500000e-010 2.500000e-010 2.500000e-010 2.500000e-010 2.500000e-010 2.500000e-010 1.000000e-009 0.000000e+000
 2.500000e-010 2.500000e-010 2.500000e-010 2.500000e-010 2.500000e-010 2.500000e-010 2.500000e-010 2.500000e-010 1.000000e-009 0.000000e+000
 0.000000e+000 2.500000e-010 2.500000e-010 2.500000e-010 2.500000e-010 2.500000e-010 1.000000e-009 1.000000e-009 2.500000e-010 0.000000e+000
 0.000000e+000 0.000000e+000 1.000000e-009 1.000000e-009 1.000000e-009 1.000000e-009 0.000000e+000 0.000000e+000 0.000000e+000 0.000000e+000
 1
INTERNAL  1.000000e+000  (FREE)  -1  RECHARGE
 2.500000e-010 1.000000e-009 0.000000e+000 0.000000e+000 0.000000e+000 0.000000e+000 0.000000e+000 0.000000e+000 0.000000e+000 0.000000e+000
 1.000000e-009 2.500000e-010 1.000000e-009 0.000000e+000 0.000000e+000 4.000000e-009 4.000000e-009 4.000000e-009 0.000000e+000 0.000000e+000
 0.000000e+000 1.000000e-009 2.500000e-010 1.000000e-009 1.000000e-009 2.500000e-010 2.500000e-010 2.500000e-010 0.000000e+000 0.000000e+000
 4.000000e-009 2.500000e-010 2.500000e-010 2.500000e-010 2.500000e-010 2.500000e-010 2.500000e-010 2.500000e-010 1.000000e-009 0.000000e+000
 4.000000e-009 2.500000e-010 2.500000e-010 2.500000e-010 2.500000e-010 2.500000e-010 2.500000e-010 2.500000e-010 2.500000e-010 2.500000e-010
 1.000000e-009 2.500000e-010 2.500000e-010 2.500000e-010 2.500000e-010 2.500000e-010 2.500000e-010 2.500000e-010 2.500000e-010 1.000000e-009
 1.000000e-009 2.500000e-010 2.500000e-010 2.500000e-010 2.500000e-010 2.500000e-010 2.500000e-010 2.500000e-010 1.000000e-009 0.000000e+000
 0.000000e+000 1.000000e-009 2.500000e-010 2.500000e-010 2.500000e-010 2.500000e-010 2.500000e-010 2.500000e-010 1.000000e-009 0.000000e+000
 0.000000e+000 1.000000e-009 2.500000e-010 2.500000e-010 2.500000e-010 2.500000e-010 2.500000e-010 2.500000e-010 1.000000e-009 0.000000e+000
 0.000000e+000 1.000000e-009 2.500000e-010 2.500000e-010 2.500000e-010 2.500000e-010 2.500000e-010 2.500000e-010 2.500000e-010 4.000000e-009
 0.000000e+000 1.000000e-009 2.500000e-010 2.500000e-010 2.500000e-010 2.500000e-010 2.500000e-010 2.500000e-010 1.000000e-009 0.000000e+000
 1.000000e-009 2.500000e-010 2.500000e-010 2.500000e-010 2.500000e-010 2.500000e-010 2.500000e-010 2.500000e-010 1.000000e-009 0.000000e+000
 2.500000e-010 2.500000e-010 2.500000e-010 2.500000e-010 2.500000e-010 2.500000e-010 2.500000e-010 2.500000e-010 1.000000e-009 0.000000e+000
 0.000000e+000 2.500000e-010 2.500000e-010 2.500000e-010 2.500000e-010 2.500000e-010 1.000000e-009 1.000000e-009 2.500000e-010 0.000000e+000
 0.000000e+000 0.000000e+000 1.000000e-009 1.000000e-009 1.000000e-009 1.000000e-009 0.000000e+000 0.000000e+000 0.000000e+000 0.000000e+000
 1
INTERNAL  1.000000e+000  (FREE)  -1  RECHARGE
 2.500000e-010 1.000000e-009 0.000000e+000 0.000000e+000 0.000000e+000 0.000000e+000 0.000000e+000 0.000000e+000 0.000000e+000 0.000000e+000
 1.000000e-009 2.500000e-010 1.000000e-009 0.000000e+000 0.000000e+000 4.000000e-009 4.000000e-009 4.000000e-009 0.000000e+000 0.000000e+000
 0.000000e+000 1.000000e-009 2.500000e-010 1.000000e-009 1.000000e-009 2.500000e-010 2.500000e-010 2.500000e-010 0.000000e+000 0.000000e+000
 4.000000e-009 2.500000e-010 2.500000e-010 2.500000e-010 2.500000e-010 2.500000e-010 2.500000e-010 2.500000e-010 1.000000e-009 0.000000e+000
 4.000000e-009 2.500000e-010 2.500000e-010 2.500000e-010 2.500000e-010 2.500000e-010 2.500000e-010 2.500000e-010 2.500000e-010 2.500000e-010
 1.000000e-009 2.500000e-010 2.500000e-010 2.500000e-010 2.500000e-010 2.500000e-010 2.500000e-010 2.500000e-010 2.500000e-010 1.000000e-009
 1.000000e-009 2.500000e-010 2.500000e-010 2.500000e-010 2.500000e-010 2.500000e-010 2.500000e-010 2.500000e-010 1.000000e-009 0.000000e+000
 0.000000e+000 1.000000e-009 2.500000e-010 2.500000e-010 2.500000e-010 2.500000e-010 2.500000e-010 2.500000e-010 1.000000e-009 0.000000e+000
 0.000000e+000 1.000000e-009 2.500000e-010 2.500000e-010 2.500000e-010 2.500000e-010 2.500000e-010 2.500000e-010 1.000000e-009 0.000000e+000
 0.000000e+000 1.000000e-009 2.500000e-010 2.500000e-010 2.500000e-010 2.500000e-010 2.500000e-010 2.500000e-010 2.500000e-010 4.000000e-009
 0.000000e+000 1.000000e-009 2.500000e-010 2.500000e-010 2.500000e-010 2.500000e-010 2.500000e-010 2.500000e-010 1.000000e-009 0.000000e+000
 1.000000e-009 2.500000e-010 2.500000e-010 2.500000e-010 2.500000e-010 2.500000e-010 2.500000e-010 2.500000e-010 1.000000e-009 0.000000e+000
 2.500000e-010 2.500000e-010 2.500000e-010 2.500000e-010 2.500000e-010 2.500000e-010 2.500000e-010 2.500000e-010 1.000000e-009 0.000000e+000
 0.000000e+000 2.500000e-010 2.500000e-010 2.500000e-010 2.500000e-010 2.500000e-010 1.000000e-009 1.000000e-009 2.500000e-010 0.000000e+000
 0.000000e+000 0.000000e+000 1.000000e-009 1.000000e-009 1.000000e-009 1.000000e-009 0.000000e+000 0.000000e+000 0.000000e+000 0.000000e+000
 1
INTERNAL  1.000000e+000  (FREE)  -1  RECHARGE
 2.500000e-010 1.000000e-009 0.000000e+000 0.000000e+000 0.000000e+000 0.000000e+000 0.000000e+000 0.000000e+000 0.000000e+000 0.000000e+000
 1.000000e-009 2.500000e-010 1.000000e-009 0.000000e+000 0.000000e+000 4.000000e-009 4.000000e-009 4.000000e-009 0.000000e+000 0.000000e+000
 0.000000e+000 1.000000e-009 2.500000e-010 1.000000e-009 1.000000e-009 2.500000e-010 2.500000e-010 2.500000e-010 0.000000e+000 0.000000e+000
 4.000000e-009 2.500000e-010 2.500000e-010 2.500000e-010 2.500000e-010 2.500000e-010 2.500000e-010 2.500000e-010 1.000000e-009 0.000000e+000
 4.000000e-009 2.500000e-010 2.500000e-010 2.500000e-010 2.500000e-010 2.500000e-010 2.500000e-010 2.500000e-010 2.500000e-010 2.500000e-010
 1.000000e-009 2.500000e-010 2.500000e-010 2.500000e-010 2.500000e-010 2.500000e-010 2.500000e-010 2.500000e-010 2.500000e-010 1.000000e-009
 1.000000e-009 2.500000e-010 2.500000e-010 2.500000e-010 2.500000e-010 2.500000e-010 2.500000e-010 2.500000e-010 1.000000e-009 0.000000e+000
 0.000000e+000 1.000000e-009 2.500000e-010 2.500000e-010 2.500000e-010 2.500000e-010 2.500000e-010 2.500000e-010 1.000000e-009 0.000000e+000
 0.000000e+000 1.000000e-009 2.500000e-010 2.500000e-010 2.500000e-010 2.500000e-010 2.500000e-010 2.500000e-010 1.000000e-009 0.000000e+000
 0.000000e+000 1.000000e-009 2.500000e-010 2.500000e-010 2.500000e-010 2.500000e-010 2.500000e-010 2.500000e-010 2.500000e-010 4.000000e-009
 0.000000e+000 1.000000e-009 2.500000e-010 2.500000e-010 2.500000e-010 2.500000e-010 2.500000e-010 2.500000e-010 1.000000e-009 0.000000e+000
 1.000000e-009 2.500000e-010 2.500000e-010 2.500000e-010 2.500000e-010 2.500000e-010 2.500000e-010 2.500000e-010 1.000000e-009 0.000000e+000
 2.500000e-010 2.500000e-010 2.500000e-010 2.500000e-010 2.500000e-010 2.500000e-010 2.500000e-010 2.500000e-010 1.000000e-009 0.000000e+000
 0.000000e+000 2.500000e-010 2.500000e-010 2.500000e-010 2.500000e-010 2.500000e-010 1.000000e-009 1.000000e-009 2.500000e-010 0.000000e+000
 0.000000e+000 0.000000e+000 1.000000e-009 1.000000e-009 1.000000e-009 1.000000e-009 0.000000e+000 0.000000e+000 0.000000e+000 0.000000e+000
 1
INTERNAL  1.000000e+000  (FREE)  -1  RECHARGE
 2.500000e-010 1.000000e-009 0.000000e+000 0.000000e+000 0.000000e+000 0.000000e+000 0.000000e+000 0.000000e+000 0.000000e+000 0.000000e+000
 1.000000e-009 2.500000e-010 1.000000e-009 0.000000e+000 0.000000e+000 4.000000e-009 4.000000e-009 4.000000e-009 0.000000e+000 0.000000e+000
 0.000000e+000 1.000000e-009 2.500000e-010 1.000000e-009 1.000000e-009 2.500000e-010 2.500000e-010 2.500000e-010 0.000000e+000 0.000000e+000
 4.000000e-009 2.500000e-010 2.500000e-010 2.500000e-010 2.500000e-010 2.500000e-010 2.500000e-010 2.500000e-010 1.000000e-009 0.000000e+000
 4.000000e-009 2.500000e-010 2.500000e-010 2.500000e-010 2.500000e-010 2.500000e-010 2.500000e-010 2.500000e-010 2.500000e-010 2.500000e-010
 1.000000e-009 2.500000e-010 2.500000e-010 2.500000e-010 2.500000e-010 2.500000e-010 2.500000e-010 2.500000e-010 2.500000e-010 1.000000e-009
 1.000000e-009 2.500000e-010 2.500000e-010 2.500000e-010 2.500000e-010 2.500000e-010 2.500000e-010 2.500000e-010 1.000000e-009 0.000000e+000
 0.000000e+000 1.000000e-009 2.500000e-010 2.500000e-010 2.500000e-010 2.500000e-010 2.500000e-010 2.500000e-010 1.000000e-009 0.000000e+000
 0.000000e+000 1.000000e-009 2.500000e-010 2.500000e-010 2.500000e-010 2.500000e-010 2.500000e-010 2.500000e-010 1.000000e-009 0.000000e+000
 0.000000e+000 1.000000e-009 2.500000e-010 2.500000e-010 2.500000e-010 2.500000e-010 2.500000e-010 2.500000e-010 2.500000e-010 4.000000e-009
 0.000000e+000 1.000000e-009 2.500000e-010 2.500000e-010 2.500000e-010 2.500000e-010 2.500000e-010 2.500000e-010 1.000000e-009 0.000000e+000
 1.000000e-009 2.500000e-010 2.500000e-010 2.500000e-010 2.500000e-010 2.500000e-010 2.500000e-010 2.500000e-010 1.000000e-009 0.000000e+000
 2.500000e-010 2.500000e-010 2.500000e-010 2.500000e-010 2.500000e-010 2.500000e-010 2.500000e-010 2.500000e-010 1.000000e-009 0.000000e+000
 0.000000e+000 2.500000e-010 2.500000e-010 2.500000e-010 2.500000e-010 2.500000e-010 1.000000e-009 1.000000e-009 2.500000e-010 0.000000e+000
 0.000000e+000 0.000000e+000 1.000000e-009 1.000000e-009 1.000000e-009 1.000000e-009 0.000000e+000 0.000000e+000 0.000000e+000 0.000000e+000
 1
INTERNAL  1.000000e+000  (FREE)  -1  RECHARGE
 2.500000e-010 1.250000e-009 0.000000e+000 0.000000e+000 0.000000e+000 0.000000e+000 0.000000e+000 0.000000e+000 0.000000e+000 0.000000e+000
 1.000000e-009 2.500000e-010 1.000000e-009 0.000000e+000 0.000000e+000 4.000000e-009 4.000000e-009 4.000000e-009 0.000000e+000 0.000000e+000
 0.000000e+000 1.000000e-009 2.500000e-010 1.000000e-009 1.000000e-009 2.500000e-010 2.500000e-010 2.500000e-010 0.000000e+000 0.000000e+000
 4.000000e-009 2.500000e-010 2.500000e-010 2.500000e-010 2.500000e-010 2.500000e-010 2.500000e-010 2.500000e-010 1.000000e-009 0.000000e+000
 4.000000e-009 2.500000e-010 2.500000e-010 2.500000e-010 2.500000e-010 2.500000e-010 2.500000e-010 2.500000e-010 2.500000e-010 2.500000e-010
 1.000000e-009 2.500000e-010 2.500000e-010 2.500000e-010 2.500000e-010 2.500000e-010 2.500000e-010 2.500000e-010 2.500000e-010 1.000000e-009
 1.000000e-009 2.500000e-010 2.500000e-010 2.500000e-010 2.500000e-010 2.500000e-010 2.500000e-010 2.500000e-010 1.000000e-009 0.000000e+000
 0.000000e+000 1.000000e-009 2.500000e-010 2.500000e-010 2.500000e-010 2.500000e-010 2.500000e-010 2.500000e-010 1.000000e-009 0.000000e+000
 0.000000e+000 1.000000e-009 2.500000e-010 2.500000e-010 2.500000e-010 2.500000e-010 2.500000e-010 2.500000e-010 1.000000e-009 0.000000e+000
 0.000000e+000 1.000000e-009 2.500000e-010 2.500000e-010 2.500000e-010 2.500000e-010 2.500000e-010 2.500000e-010 2.500000e-010 4.000000e-009
 0.000000e+000 1.000000e-009 2.500000e-010 2.500000e-010 2.500000e-010 2.500000e-010 2.500000e-010 2.500000e-010 1.000000e-009 0.000000e+000
 1.000000e-009 2.500000e-010 2.500000e-010 2.500000e-010 2.500000e-010 2.500000e-010 2.500000e-010 2.500000e-010 1.000000e-009 0.000000e+000
 2.500000e-010 2.500000e-010 2.500000e-010 2.500000e-010 2.500000e-010 2.500000e-010 2.500000e-010 2.500000e-010 1.000000e-009 0.000000e+000
 0.000000e+000 2.500000e-010 2.500000e-010 2.500000e-010 2.500000e-010 2.500000e-010 1.000000e-009 1.000000e-009 2.500000e-010 0.000000e+000
 0.000000e+000 0.000000e+000 1.000000e-009 1.000000e-009 1.000000e-009 1.000000e-009 0.000000e+000 0.000000e+000 0.000000e+000 0.000000e+000
