# SFR Package for MODFLOW-USGs
 36  8  0  0  1.486000e+000  1.000000e-004  -1  0
  1  1  1  4.500000000000000e+003
  12  1  2  7.000000000000000e+003
  23  1  3  6.000000000000000e+003
  24  1  4  5.550000000000000e+003
  35  2  1  6.500000000000000e+003
  46  2  2  5.000000000000000e+003
  56  2  3  5.000000000000000e+003
  66  2  4  5.000000000000000e+003
  76  2  5  5.000000000000000e+003
  25  3  1  5.000000000000000e+003
  26  3  2  5.000000000000000e+003
  27  3  3  4.500000000000000e+003
  38  3  4  6.000000000000000e+003
  48  3  5  5.000000000000000e+003
  58  3  6  2.000000000000000e+003
  50  4  1  2.500000000000000e+003
  49  4  2  5.000000000000000e+003
  58  4  3  3.500000000000000e+003
  58  5  1  4.000000000000000e+003
  67  5  2  5.000000000000000e+003
  77  5  3  3.500000000000000e+003
  76  5  4  2.500000000000000e+003
  86  6  1  5.000000000000000e+003
  97  6  2  5.000000000000000e+003
  107  6  3  5.000000000000000e+003
  117  6  4  5.000000000000000e+003
  127  6  5  2.000000000000000e+003
  139  7  1  5.000000000000000e+003
  128  7  2  5.500000000000000e+003
  127  7  3  5.000000000000000e+003
  126  8  1  5.000000000000000e+003
  125  8  2  5.000000000000000e+003
  124  8  3  5.000000000000000e+003
  123  8  4  5.000000000000000e+003
  122  8  5  5.000000000000000e+003
  121  8  6  3.000000000000000e+003
  8  0  0  0
  1  4  2  0  11  25.000000  0.000000  0.000000  0.000000
  0.000030  3.000000  1095.000000
  0.000030  3.000000  1075.000000
 0.500000 1.000000 2.000000 4.000000 7.000000 10.000000 20.000000 30.000000 50.000000 75.000000 100.000000
 0.250000 0.400000 0.550000 0.700000 0.800000 0.900000 1.100000 1.250000 1.400000 1.700000 2.600000
 3.000000 3.500000 4.200000 5.300000 7.000000 8.500000 12.000000 14.000000 17.000000 20.000000 22.000000
  2  1  6  0  0.000000  0.000000  0.000000  0.000000  0.030000
  0.000030  3.000000  1075.000000  12.000000
  0.000030  3.000000  1050.000000  12.000000
  3  0  5  1  0  10.000000  0.000000  0.000000  0.000000
  0.000030  2.000000  1075.000000  10.000000  2.000000
  0.000030  2.000000  1060.000000  6.000000  1.000000
  4  1  5  0  10.000000  0.000000  0.000000  0.000000  0.030000
  0.000030  3.000000  1080.000000  10.000000
  0.000030  3.000000  1060.000000  10.000000
  5  3  6  0  0.000000  0.000000  0.000000  0.000000  0.300000  0.350000  3.800000  0.600000
  0.000030  3.000000  1060.000000
  0.000030  3.000000  1045.000000
  6  1  8  0  0.000000  0.000000  0.000000  0.000000  0.030000
  0.000030  3.000000  1045.000000  12.000000
  0.000030  3.000000  1025.000000  12.000000
  7  2  8  0  150.000000  0.000000  0.000000  0.000000  0.025000  0.045000
  0.000060  3.000000  1040.000000
  0.000060  3.000000  1025.000000
 0.000000 10.000000 80.000000 100.000000 150.000000 170.000000 240.000000 250.000000
 20.000000 13.000000 10.000000 2.000000 0.000000 10.000000 13.000000 20.000000
  8  2  0  0  0.000000  0.000000  0.000000  0.000000  0.025000  0.045000
  0.000060  3.000000  1025.000000
  0.000060  3.000000  990.000000
 0.000000 10.000000 80.000000 100.000000 150.000000 170.000000 240.000000 250.000000
 25.000000 17.000000 13.000000 4.000000 0.000000 10.000000 16.000000 20.000000
  8  0  0  0
  1  4  2  0  11  25.000000  0.000000  0.000000  0.000000
  0.000030  3.000000  1095.000000
  0.000030  3.000000  1075.000000
 0.500000 1.000000 2.000000 4.000000 7.000000 10.000000 20.000000 30.000000 50.000000 75.000000 100.000000
 0.250000 0.400000 0.550000 0.700000 0.800000 0.900000 1.100000 1.250000 1.400000 1.700000 2.600000
 3.000000 3.500000 4.200000 5.300000 7.000000 8.500000 12.000000 14.000000 17.000000 20.000000 22.000000
  2  1  6  0  0.000000  0.000000  0.000000  0.000000  0.030000
  0.000030  3.000000  1075.000000  12.000000
  0.000030  3.000000  1050.000000  12.000000
  3  0  5  1  0  10.000000  0.000000  0.000000  0.000000
  0.000030  2.000000  1075.000000  10.000000  2.000000
  0.000030  2.000000  1060.000000  6.000000  1.000000
  4  1  5  0  10.000000  0.000000  0.000000  0.000000  0.030000
  0.000030  3.000000  1080.000000  10.000000
  0.000030  3.000000  1060.000000  10.000000
  5  3  6  0  0.000000  0.000000  0.000000  0.000000  0.300000  0.350000  3.800000  0.600000
  0.000030  3.000000  1060.000000
  0.000030  3.000000  1045.000000
  6  1  8  0  0.000000  0.000000  0.000000  0.000000  0.030000
  0.000030  3.000000  1045.000000  12.000000
  0.000030  3.000000  1025.000000  12.000000
  7  2  8  0  150.000000  0.000000  0.000000  0.000000  0.025000  0.045000
  0.000060  3.000000  1040.000000
  0.000060  3.000000  1025.000000
 0.000000 10.000000 80.000000 100.000000 150.000000 170.000000 240.000000 250.000000
 20.000000 13.000000 10.000000 2.000000 0.000000 10.000000 13.000000 20.000000
  8  2  0  0  0.000000  0.000000  0.000000  0.000000  0.025000  0.045000
  0.000060  3.000000  1025.000000
  0.000060  3.000000  990.000000
 0.000000 10.000000 80.000000 100.000000 150.000000 170.000000 240.000000 250.000000
 25.000000 17.000000 13.000000 4.000000 0.000000 10.000000 16.000000 20.000000
  8  0  0  0
  1  4  2  0  11  25.000000  0.000000  0.000000  0.000000
  0.000030  3.000000  1095.000000
  0.000030  3.000000  1075.000000
 0.500000 1.000000 2.000000 4.000000 7.000000 10.000000 20.000000 30.000000 50.000000 75.000000 100.000000
 0.250000 0.400000 0.550000 0.700000 0.800000 0.900000 1.100000 1.250000 1.400000 1.700000 2.600000
 3.000000 3.500000 4.200000 5.300000 7.000000 8.500000 12.000000 14.000000 17.000000 20.000000 22.000000
  2  1  6  0  0.000000  0.000000  0.000000  0.000000  0.030000
  0.000030  3.000000  1075.000000  12.000000
  0.000030  3.000000  1050.000000  12.000000
  3  0  5  1  0  10.000000  0.000000  0.000000  0.000000
  0.000030  2.000000  1075.000000  10.000000  2.000000
  0.000030  2.000000  1060.000000  6.000000  1.000000
  4  1  5  0  10.000000  0.000000  0.000000  0.000000  0.030000
  0.000030  3.000000  1080.000000  10.000000
  0.000030  3.000000  1060.000000  10.000000
  5  3  6  0  0.000000  0.000000  0.000000  0.000000  0.300000  0.350000  3.800000  0.600000
  0.000030  3.000000  1060.000000
  0.000030  3.000000  1045.000000
  6  1  8  0  0.000000  0.000000  0.000000  0.000000  0.030000
  0.000030  3.000000  1045.000000  12.000000
  0.000030  3.000000  1025.000000  12.000000
  7  2  8  0  150.000000  0.000000  0.000000  0.000000  0.025000  0.045000
  0.000060  3.000000  1040.000000
  0.000060  3.000000  1025.000000
 0.000000 10.000000 80.000000 100.000000 150.000000 170.000000 240.000000 250.000000
 20.000000 13.000000 10.000000 2.000000 0.000000 10.000000 13.000000 20.000000
  8  2  0  0  0.000000  0.000000  0.000000  0.000000  0.025000  0.045000
  0.000060  3.000000  1025.000000
  0.000060  3.000000  990.000000
 0.000000 10.000000 80.000000 100.000000 150.000000 170.000000 240.000000 250.000000
 25.000000 17.000000 13.000000 4.000000 0.000000 10.000000 16.000000 20.000000
  8  0  0  0
  1  4  2  0  11  25.000000  0.000000  0.000000  0.000000
  0.000030  3.000000  1095.000000
  0.000030  3.000000  1075.000000
 0.500000 1.000000 2.000000 4.000000 7.000000 10.000000 20.000000 30.000000 50.000000 75.000000 100.000000
 0.250000 0.400000 0.550000 0.700000 0.800000 0.900000 1.100000 1.250000 1.400000 1.700000 2.600000
 3.000000 3.500000 4.200000 5.300000 7.000000 8.500000 12.000000 14.000000 17.000000 20.000000 22.000000
  2  1  6  0  0.000000  0.000000  0.000000  0.000000  0.030000
  0.000030  3.000000  1075.000000  12.000000
  0.000030  3.000000  1050.000000  12.000000
  3  0  5  1  0  10.000000  0.000000  0.000000  0.000000
  0.000030  2.000000  1075.000000  10.000000  2.000000
  0.000030  2.000000  1060.000000  6.000000  1.000000
  4  1  5  0  10.000000  0.000000  0.000000  0.000000  0.030000
  0.000030  3.000000  1080.000000  10.000000
  0.000030  3.000000  1060.000000  10.000000
  5  3  6  0  0.000000  0.000000  0.000000  0.000000  0.300000  0.350000  3.800000  0.600000
  0.000030  3.000000  1060.000000
  0.000030  3.000000  1045.000000
  6  1  8  0  0.000000  0.000000  0.000000  0.000000  0.030000
  0.000030  3.000000  1045.000000  12.000000
  0.000030  3.000000  1025.000000  12.000000
  7  2  8  0  150.000000  0.000000  0.000000  0.000000  0.025000  0.045000
  0.000060  3.000000  1040.000000
  0.000060  3.000000  1025.000000
 0.000000 10.000000 80.000000 100.000000 150.000000 170.000000 240.000000 250.000000
 20.000000 13.000000 10.000000 2.000000 0.000000 10.000000 13.000000 20.000000
  8  2  0  0  0.000000  0.000000  0.000000  0.000000  0.025000  0.045000
  0.000060  3.000000  1025.000000
  0.000060  3.000000  990.000000
 0.000000 10.000000 80.000000 100.000000 150.000000 170.000000 240.000000 250.000000
 25.000000 17.000000 13.000000 4.000000 0.000000 10.000000 16.000000 20.000000
  8  0  0  0
  1  4  2  0  11  25.000000  0.000000  0.000000  0.000000
  0.000030  3.000000  1095.000000
  0.000030  3.000000  1075.000000
 0.500000 1.000000 2.000000 4.000000 7.000000 10.000000 20.000000 30.000000 50.000000 75.000000 100.000000
 0.250000 0.400000 0.550000 0.700000 0.800000 0.900000 1.100000 1.250000 1.400000 1.700000 2.600000
 3.000000 3.500000 4.200000 5.300000 7.000000 8.500000 12.000000 14.000000 17.000000 20.000000 22.000000
  2  1  6  0  0.000000  0.000000  0.000000  0.000000  0.030000
  0.000030  3.000000  1075.000000  12.000000
  0.000030  3.000000  1050.000000  12.000000
  3  0  5  1  0  10.000000  0.000000  0.000000  0.000000
  0.000030  2.000000  1075.000000  10.000000  2.000000
  0.000030  2.000000  1060.000000  6.000000  1.000000
  4  1  5  0  10.000000  0.000000  0.000000  0.000000  0.030000
  0.000030  3.000000  1080.000000  10.000000
  0.000030  3.000000  1060.000000  10.000000
  5  3  6  0  0.000000  0.000000  0.000000  0.000000  0.300000  0.350000  3.800000  0.600000
  0.000030  3.000000  1060.000000
  0.000030  3.000000  1045.000000
  6  1  8  0  0.000000  0.000000  0.000000  0.000000  0.030000
  0.000030  3.000000  1045.000000  12.000000
  0.000030  3.000000  1025.000000  12.000000
  7  2  8  0  150.000000  0.000000  0.000000  0.000000  0.025000  0.045000
  0.000060  3.000000  1040.000000
  0.000060  3.000000  1025.000000
 0.000000 10.000000 80.000000 100.000000 150.000000 170.000000 240.000000 250.000000
 20.000000 13.000000 10.000000 2.000000 0.000000 10.000000 13.000000 20.000000
  8  2  0  0  0.000000  0.000000  0.000000  0.000000  0.025000  0.045000
  0.000060  3.000000  1025.000000
  0.000060  3.000000  990.000000
 0.000000 10.000000 80.000000 100.000000 150.000000 170.000000 240.000000 250.000000
 25.000000 17.000000 13.000000 4.000000 0.000000 10.000000 16.000000 20.000000
  8  0  0  0
  1  4  2  0  11  25.000000  0.000000  0.000000  0.000000
  0.000030  3.000000  1095.000000
  0.000030  3.000000  1075.000000
 0.500000 1.000000 2.000000 4.000000 7.000000 10.000000 20.000000 30.000000 50.000000 75.000000 100.000000
 0.250000 0.400000 0.550000 0.700000 0.800000 0.900000 1.100000 1.250000 1.400000 1.700000 2.600000
 3.000000 3.500000 4.200000 5.300000 7.000000 8.500000 12.000000 14.000000 17.000000 20.000000 22.000000
  2  1  6  0  0.000000  0.000000  0.000000  0.000000  0.030000
  0.000030  3.000000  1075.000000  12.000000
  0.000030  3.000000  1050.000000  12.000000
  3  0  5  1  0  10.000000  0.000000  0.000000  0.000000
  0.000030  2.000000  1075.000000  10.000000  2.000000
  0.000030  2.000000  1060.000000  6.000000  1.000000
  4  1  5  0  10.000000  0.000000  0.000000  0.000000  0.030000
  0.000030  3.000000  1080.000000  10.000000
  0.000030  3.000000  1060.000000  10.000000
  5  3  6  0  0.000000  0.000000  0.000000  0.000000  0.300000  0.350000  3.800000  0.600000
  0.000030  3.000000  1060.000000
  0.000030  3.000000  1045.000000
  6  1  8  0  0.000000  0.000000  0.000000  0.000000  0.030000
  0.000030  3.000000  1045.000000  12.000000
  0.000030  3.000000  1025.000000  12.000000
  7  2  8  0  150.000000  0.000000  0.000000  0.000000  0.025000  0.045000
  0.000060  3.000000  1040.000000
  0.000060  3.000000  1025.000000
 0.000000 10.000000 80.000000 100.000000 150.000000 170.000000 240.000000 250.000000
 20.000000 13.000000 10.000000 2.000000 0.000000 10.000000 13.000000 20.000000
  8  2  0  0  0.000000  0.000000  0.000000  0.000000  0.025000  0.045000
  0.000060  3.000000  1025.000000
  0.000060  3.000000  990.000000
 0.000000 10.000000 80.000000 100.000000 150.000000 170.000000 240.000000 250.000000
 25.000000 17.000000 13.000000 4.000000 0.000000 10.000000 16.000000 20.000000
