# MODFLOW-USGs Basic Package
# #TestProblem 1 
#   #Transient Simulation For SFR Package
 UNSTRUCTURED FREE
INTERNAL  1  (FREE)  -1  IBOUND Layer 1
-1 1 0 0 0 0 0 0 0 0
 1 1 1 0 0 1 1 1 0 0
 0 1 1 1 1 1 1 1 0 0
 1 1 1 1 1 1 1 1 1 0
 1 1 1 1 1 1 1 1 1 1
 1 1 1 1 1 1 1 1 1 1
 1 1 1 1 1 1 1 1 1 0
 0 1 1 1 1 1 1 1 1 0
 0 1 1 1 1 1 1 1 1 0
 0 1 1 1 1 1 1 1 1 1
 0 1 1 1 1 1 1 1 1 0
 1 1 1 1 1 1 1 1 1 0
 1 1 1 1 1 1 1 1 1 0
 0 1 1 1 1 1 1 1 1 0
 0 0 1 1 1 1 0 0 0 0
1.000000e+030
INTERNAL  1.000000e+000  (FREE)  -1  Starting Heads Layer 1
 1.092900e+003 1.089400e+003 6.999000e+003 6.999000e+003 6.999000e+003 6.999000e+003 6.999000e+003 6.999000e+003 6.999000e+003 6.999000e+003
 1.089900e+003 1.086700e+003 1.081400e+003 6.999000e+003 6.999000e+003 1.072300e+003 1.071500e+003 1.071100e+003 6.999000e+003 6.999000e+003
 6.999000e+003 1.079400e+003 1.077500e+003 1.073600e+003 1.072500e+003 1.070600e+003 1.069100e+003 1.068300e+003 6.999000e+003 6.999000e+003
 1.069100e+003 1.070700e+003 1.070200e+003 1.067000e+003 1.065500e+003 1.063600e+003 1.063900e+003 1.065900e+003 1.066100e+003 6.999000e+003
 1.064900e+003 1.063900e+003 1.062900e+003 1.061500e+003 1.060800e+003 1.060800e+003 1.060200e+003 1.062000e+003 1.065700e+003 1.068100e+003
 1.059800e+003 1.058300e+003 1.057200e+003 1.056400e+003 1.056300e+003 1.056900e+003 1.057200e+003 1.059100e+003 1.061900e+003 1.065600e+003
 1.056100e+003 1.053000e+003 1.051700e+003 1.051200e+003 1.051300e+003 1.051900e+003 1.053200e+003 1.055500e+003 1.056500e+003 6.999000e+003
 6.999000e+003 1.046300e+003 1.045700e+003 1.045500e+003 1.045800e+003 1.046500e+003 1.047800e+003 1.049900e+003 1.050400e+003 6.999000e+003
 6.999000e+003 1.039100e+003 1.039100e+003 1.039500e+003 1.040000e+003 1.041000e+003 1.041600e+003 1.042900e+003 1.044000e+003 6.999000e+003
 6.999000e+003 1.031100e+003 1.031800e+003 1.033300e+003 1.034300e+003 1.035400e+003 1.036500e+003 1.037600e+003 1.039300e+003 1.041600e+003
 6.999000e+003 1.021400e+003 1.023100e+003 1.026800e+003 1.028700e+003 1.030500e+003 1.032100e+003 1.033600e+003 1.035700e+003 6.999000e+003
 1.001200e+003 1.009200e+003 1.014500e+003 1.019600e+003 1.023100e+003 1.026200e+003 1.028600e+003 1.030400e+003 1.034300e+003 6.999000e+003
 9.945000e+002 1.000000e+003 1.006700e+003 1.012900e+003 1.018700e+003 1.024300e+003 1.029100e+003 1.034100e+003 1.036100e+003 6.999000e+003
 6.999000e+003 1.004000e+003 1.009000e+003 1.013700e+003 1.018900e+003 1.024000e+003 1.029500e+003 1.035100e+003 1.039300e+003 6.999000e+003
 6.999000e+003 6.999000e+003 1.011900e+003 1.015100e+003 1.019100e+003 1.022400e+003 6.999000e+003 6.999000e+003 6.999000e+003 6.999000e+003
