# MODFLOW2000 HFB File
  0  0  1516
     37739     37563       8.640e-08         0
     37740     37564       8.640e-08         0
     37741     37565       8.640e-08         0
     37742     37566       8.640e-08         0
     37743     37742       8.640e-08         0
     26938     26762       8.640e-03         0
     26938     26937       8.640e-03         0
     27289     27113       8.640e-03         0
     27289     27288       8.640e-03         0
     27640     27464       8.640e-03         0
     27640     27639       8.640e-03         0
     27991     27815       8.640e-03         0
     27991     27990       8.640e-03         0
     27465     27464       8.640e-03         0
     27990     28166       8.640e-03         0
     28166     27990       8.640e-03         0
     27815     27816       8.640e-03         0
     27816     27815       8.640e-03         0
     27113     27114       8.640e-03         0
     27114     27113       8.640e-03         0
     26236     26060       8.640e-03         0
     26236     26237       8.640e-03         0
     26236     26235       8.640e-03         0
     26236     26237       8.640e-03         0
     25885     25709       8.640e-03         0
     25885     25884       8.640e-03         0
     26587     26411       8.640e-03         0
     26587     26586       8.640e-03         0
     26587     26586       8.640e-03         0
     26587     26586       8.640e-03         0
     26762     26763       8.640e-03         0
     26763     26762       8.640e-03         0
     26411     26587       8.640e-03         0
     26411     26412       8.640e-03         0
     29229     29230       6.480e-04         0
     29405     29406       6.480e-04         0
     29581     29582       6.480e-04         0
     29757     29758       6.480e-04         0
     29933     29934       6.480e-04         0
     30109     30110       6.480e-04         0
     30285     30286       6.480e-04         0
     30461     30462       6.480e-04         0
     30637     30638       6.480e-04         0
     30813     30814       6.480e-04         0
     30989     30990       6.480e-04         0
     31165     31166       6.480e-04         0
     31341     31342       6.480e-04         0
     31517     31518       6.480e-04         0
     31693     31694       6.480e-04         0
     31869     31870       6.480e-04         0
     32045     32046       6.480e-04         0
     32221     32222       6.480e-04         0
     32397     32398       6.480e-04         0
     32573     32574       6.480e-04         0
     32749     32750       6.480e-04         0
     32925     32926       6.480e-04         0
     33101     33102       6.480e-04         0
     33277     33278       6.480e-04         0
     33453     33454       6.480e-04         0
     33629     33630       6.480e-04         0
     33805     33806       6.480e-04         0
     33981     33982       6.480e-04         0
     34157     34158       6.480e-04         0
     34333     34334       6.480e-04         0
     34509     34510       6.480e-04         0
     34685     34686       6.480e-04         0
     34861     34862       6.480e-04         0
     35037     35038       6.480e-04         0
     35213     35214       6.480e-04         0
     35389     35390       6.480e-04         0
     35565     35566       6.480e-04         0
     35741     35742       6.480e-04         0
     35917     35918       6.480e-04         0
     36093     36094       6.480e-04         0
     36269     36270       6.480e-04         0
     36445     36446       6.480e-04         0
     36621     36622       6.480e-04         0
     36797     36798       6.480e-04         0
     36973     36974       6.480e-04         0
     37149     37150       6.480e-04         0
     37325     37326       6.480e-04         0
     37501     37502       6.480e-04         0
     37677     37678       7.776e-04         0
     37853     37854       7.776e-04         0
     38030     38031       7.776e-04         0
     38206     38207       7.776e-04         0
     29053     29054       6.480e-04         0
     29054     29053       6.480e-04         0
     28877     28878       6.480e-04         0
     28878     28877       6.480e-04         0
     28701     28702       6.480e-04         0
     28702     28701       6.480e-04         0
     28525     28526       6.480e-04         0
     28526     28525       6.480e-04         0
     28349     28350       6.480e-04         0
     28350     28349       6.480e-04         0
     28173     28174       6.480e-04         0
     28174     28173       6.480e-04         0
     27997     27998       6.480e-04         0
     27998     27997       6.480e-04         0
     27821     27822       6.480e-04         0
     27822     27821       6.480e-04         0
     25885     25886       6.480e-04         0
     25886     25885       6.480e-04         0
     26061     26062       6.480e-04         0
     26062     26061       6.480e-04         0
     26237     26238       6.480e-04         0
     26238     26237       6.480e-04         0
     26413     26414       6.480e-04         0
     26414     26413       6.480e-04         0
     26589     26590       6.480e-04         0
     26590     26589       6.480e-04         0
     26765     26766       6.480e-04         0
     26766     26765       6.480e-04         0
     27645     27646       6.480e-04         0
     27646     27645       6.480e-04         0
     27469     27470       6.480e-04         0
     27470     27469       6.480e-04         0
     26060     26061       8.640e-03         0
     26061     26060       8.640e-03         0
     26941     26942       6.480e-04         0
     26942     26941       6.480e-04         0
     27117     27118       6.480e-04         0
     27118     27117       6.480e-04         0
     27293     27294       6.480e-04         0
     27294     27293       6.480e-04         0
     20429     20430       6.480e-04         0
     20605     20606       6.480e-04         0
     20606     20605       6.480e-04         0
     20781     20782       6.480e-04         0
     20782     20781       6.480e-04         0
     20957     20958       6.480e-04         0
     20958     20957       6.480e-04         0
     21133     21134       6.480e-04         0
     21134     21133       6.480e-04         0
     21309     21310       6.480e-04         0
     21310     21309       6.480e-04         0
     21485     21486       6.480e-04         0
     21486     21485       6.480e-04         0
     21661     21662       6.480e-04         0
     21662     21661       6.480e-04         0
     21837     21838       6.480e-04         0
     21838     21837       6.480e-04         0
     22013     22014       6.480e-04         0
     22014     22013       6.480e-04         0
     22189     22190       6.480e-04         0
     22190     22189       6.480e-04         0
     22365     22366       6.480e-04         0
     22366     22365       6.480e-04         0
     22541     22542       6.480e-04         0
     22542     22541       6.480e-04         0
     22717     22718       6.480e-04         0
     22718     22717       6.480e-04         0
     22893     22894       6.480e-04         0
     22894     22893       6.480e-04         0
     24653     24654       6.480e-04         0
     24654     24653       6.480e-04         0
     24477     24478       6.480e-04         0
     24478     24477       6.480e-04         0
     23597     23598       6.480e-04         0
     23598     23597       6.480e-04         0
     23421     23422       6.480e-04         0
     23422     23421       6.480e-04         0
     23245     23246       6.480e-04         0
     23246     23245       6.480e-04         0
     23069     23070       6.480e-04         0
     23070     23069       6.480e-04         0
     23949     23950       6.480e-04         0
     23950     23949       6.480e-04         0
     23773     23774       6.480e-04         0
     23774     23773       6.480e-04         0
     24125     24126       6.480e-04         0
     24126     24125       6.480e-04         0
     24301     24302       6.480e-04         0
     24302     24301       6.480e-04         0
     24829     24830       6.480e-04         0
     24830     24829       6.480e-04         0
     25357     25358       6.480e-04         0
     25533     25534       6.480e-04         0
     25709     25710       6.480e-04         0
     25710     25709       6.480e-04         0
     25005     25006       6.480e-04         0
     25006     25005       6.480e-04         0
     25181     25182       6.480e-04         0
     20846     21022       2.160e-05         0
     20847     21023       2.160e-05         0
     20848     21024       2.160e-05         0
     20849     21025       2.160e-05         0
     20850     20674       2.160e-05         0
     20850     20849       2.160e-05         0
     21017     21193       2.160e-05         0
     21019     21195       2.160e-05         0
     21020     21196       2.160e-05         0
     21021     20845       2.160e-05         0
     21021     21020       2.160e-05         0
     21189     21365       2.160e-05         0
     21190     21366       2.160e-05         0
     21191     21367       2.160e-05         0
     21192     21016       2.160e-05         0
     21192     21191       2.160e-05         0
     21362     21538       2.160e-05         0
     21363     21539       2.160e-05         0
     21364     21188       2.160e-05         0
     21364     21363       2.160e-05         0
     20674     20850       2.160e-05         0
     21018     21194       2.160e-05         0
     21194     21018       2.160e-05         0
     21535     21711       2.160e-05         0
     21535     21536       2.160e-05         0
     21707     21883       2.160e-05         0
     21708     21884       2.160e-05         0
     21709     21885       2.160e-05         0
     21710     21534       2.160e-05         0
     21710     21709       2.160e-05         0
     21880     22056       2.160e-05         0
     21881     22057       2.160e-05         0
     21882     21706       2.160e-05         0
     21882     21881       2.160e-05         0
     22055     21879       2.160e-05         0
     22055     22054       2.160e-05         0
     21536     21360       2.160e-05         0
     21536     21535       2.160e-05         0
     21360     21536       2.160e-05         0
     21361     21537       2.160e-05         0
     21537     21361       2.160e-05         0
     22226     22402       2.160e-05         0
     22227     22051       2.160e-05         0
     22227     22226       2.160e-05         0
     22397     22573       2.160e-05         0
     22398     22574       2.160e-05         0
     22399     22575       2.160e-05         0
     22400     22224       2.160e-05         0
     22400     22399       2.160e-05         0
     22570     22746       2.160e-05         0
     22571     22747       2.160e-05         0
     22572     22396       2.160e-05         0
     22572     22571       2.160e-05         0
     22744     22920       2.160e-05         0
     22745     22569       2.160e-05         0
     22745     22744       2.160e-05         0
     22225     22401       2.160e-05         0
     22401     22225       2.160e-05         0
     22054     22230       2.160e-05         0
     22230     22054       2.160e-05         0
     22053     22229       2.160e-05         0
     22229     22053       2.160e-05         0
     22052     22228       2.160e-05         0
     22228     22052       2.160e-05         0
     22918     23094       2.160e-05         0
     22919     22743       2.160e-05         0
     22919     22918       2.160e-05         0
     23091     23267       2.160e-05         0
     23092     22916       2.160e-05         0
     23092     23091       2.160e-05         0
     23265     23441       2.160e-05         0
     23266     23090       2.160e-05         0
     23266     23265       2.160e-05         0
     23440     23264       2.160e-05         0
     23440     23439       2.160e-05         0
     23614     23790       2.160e-05         0
     23615     23439       2.160e-05         0
     23615     23614       2.160e-05         0
     23788     23964       2.160e-05         0
     23789     23613       2.160e-05         0
     23789     23788       2.160e-05         0
     22917     23093       2.160e-05         0
     23093     22917       2.160e-05         0
     22743     22919       2.160e-05         0
     24136     24312       2.160e-05         0
     24137     23961       2.160e-05         0
     24137     24136       2.160e-05         0
     24310     24486       2.160e-05         0
     24311     24135       2.160e-05         0
     24311     24310       2.160e-05         0
     24483     24659       2.160e-05         0
     24484     24660       2.160e-05         0
     24485     24309       2.160e-05         0
     24485     24484       2.160e-05         0
     24658     24482       2.160e-05         0
     24658     24657       2.160e-05         0
     24832     25008       2.160e-05         0
     24832     24833       2.160e-05         0
     24833     24657       2.160e-05         0
     24833     24832       2.160e-05         0
     25007     25183       2.160e-05         0
     25007     25008       2.160e-05         0
     25008     24832       2.160e-05         0
     25008     25007       2.160e-05         0
     23786     23962       2.160e-05         0
     23962     23786       2.160e-05         0
     23962     23961       2.160e-05         0
     23787     23963       2.160e-05         0
     23963     23787       2.160e-05         0
     23961     23962       2.160e-05         0
     25183     25007       2.160e-05         0
     25183     25182       2.160e-05         0
     25534     25710       2.160e-05         0
     25534     25535       2.160e-05         0
     25710     25534       2.160e-05         0
     25358     25359       2.160e-05         0
     25359     25358       2.160e-05         0
     25535     25534       2.160e-05         0
     20675     20851       8.640e-05         0
     20851     20675       8.640e-05         0
     20522     20698       8.640e-05         0
     20523     20699       8.640e-05         0
     20678     20854       8.640e-05         0
     20679     20855       8.640e-05         0
     20680     20856       8.640e-05         0
     20681     20857       8.640e-05         0
     20682     20858       8.640e-05         0
     20683     20859       8.640e-05         0
     20684     20860       8.640e-05         0
     20685     20861       8.640e-05         0
     20688     20864       8.640e-05         0
     20689     20865       8.640e-05         0
     20690     20866       8.640e-05         0
     20691     20867       8.640e-05         0
     20692     20868       8.640e-05         0
     20693     20869       8.640e-05         0
     20694     20870       8.640e-05         0
     20695     20871       8.640e-05         0
     20696     20872       8.640e-05         0
     20697     20521       8.640e-05         0
     20697     20696       8.640e-05         0
     20676     20852       8.640e-05         0
     20677     20853       8.640e-05         0
     20527     20703       8.640e-05         0
     20528     20704       8.640e-05         0
     20529     20705       8.640e-05         0
     20530     20706       8.640e-05         0
     20533     20709       8.640e-05         0
     20534     20710       8.640e-05         0
     20535     20711       8.640e-05         0
     20536     20712       8.640e-05         0
     20537     20713       8.640e-05         0
     20538     20714       8.640e-05         0
     20539     20715       8.640e-05         0
     20540     20716       8.640e-05         0
     20541     20717       8.640e-05         0
     20542     20718       8.640e-05         0
     20543     20719       8.640e-05         0
     20544     20720       8.640e-05         0
     20545     20721       8.640e-05         0
     20545     20546       8.640e-05         0
     20524     20700       8.640e-05         0
     20700     20524       8.640e-05         0
     20525     20701       8.640e-05         0
     20701     20525       8.640e-05         0
     20526     20702       8.640e-05         0
     20702     20526       8.640e-05         0
     20531     20707       8.640e-05         0
     20707     20531       8.640e-05         0
     20532     20708       8.640e-05         0
     20708     20532       8.640e-05         0
     20210     20386       8.640e-05         0
     20385     20561       8.640e-05         0
     20385     20386       8.640e-05         0
     20384     20560       8.640e-05         0
     20560     20384       8.640e-05         0
     20383     20559       8.640e-05         0
     20559     20383       8.640e-05         0
     20382     20558       8.640e-05         0
     20558     20382       8.640e-05         0
     20381     20557       8.640e-05         0
     20557     20381       8.640e-05         0
     20546     20370       8.640e-05         0
     20546     20545       8.640e-05         0
     20370     20546       8.640e-05         0
     20371     20547       8.640e-05         0
     20547     20371       8.640e-05         0
     20372     20548       8.640e-05         0
     20548     20372       8.640e-05         0
     20373     20549       8.640e-05         0
     20549     20373       8.640e-05         0
     20374     20550       8.640e-05         0
     20550     20374       8.640e-05         0
     20375     20551       8.640e-05         0
     20551     20375       8.640e-05         0
     20376     20552       8.640e-05         0
     20552     20376       8.640e-05         0
     20377     20553       8.640e-05         0
     20553     20377       8.640e-05         0
     20378     20554       8.640e-05         0
     20554     20378       8.640e-05         0
     20379     20555       8.640e-05         0
     20555     20379       8.640e-05         0
     20380     20556       8.640e-05         0
     20556     20380       8.640e-05         0
     19864     20040       8.640e-05         0
     19864     19865       8.640e-05         0
     19865     19689       8.640e-05         0
     19865     19864       8.640e-05         0
     20039     20215       8.640e-05         0
     20040     19864       8.640e-05         0
     20040     20039       8.640e-05         0
     20214     20038       8.640e-05         0
     20214     20213       8.640e-05         0
     19689     19690       8.640e-05         0
     19690     19689       8.640e-05         0
     20211     20387       8.640e-05         0
     20387     20211       8.640e-05         0
     20212     20388       8.640e-05         0
     20388     20212       8.640e-05         0
     20213     20389       8.640e-05         0
     20389     20213       8.640e-05         0
     20686     20862       8.640e-05         0
     20862     20686       8.640e-05         0
     20687     20863       8.640e-05         0
     20863     20687       8.640e-05         0
     37542     37366       8.640e-08         0
     37543     37367       8.640e-08         0
     37544     37368       8.640e-08         0
     37545     37369       8.640e-08         0
     37546     37370       8.640e-08         0
     37547     37371       8.640e-08         0
     37548     37372       8.640e-08         0
     37549     37373       8.640e-08         0
     37550     37374       8.640e-08         0
     37551     37375       8.640e-08         0
     37551     37552       8.640e-08         0
     37552     37728       8.640e-08         0
     37552     37551       8.640e-08         0
     37728     37552       8.640e-08         0
     37562     37738       8.640e-08         0
     37738     37562       8.640e-08         0
     37558     37734       8.640e-08         0
     37734     37558       8.640e-08         0
     37556     37732       8.640e-08         0
     37732     37556       8.640e-08         0
     37557     37733       8.640e-08         0
     37733     37557       8.640e-08         0
     37554     37730       8.640e-08         0
     37730     37554       8.640e-08         0
     37555     37731       8.640e-08         0
     37731     37555       8.640e-08         0
     37553     37729       8.640e-05         0
     37729     37553       8.640e-05         0
     37560     37736       8.640e-08         0
     37736     37560       8.640e-08         0
     37561     37737       8.640e-08         0
     37737     37561       8.640e-08         0
     37559     37735       8.640e-08         0
     37735     37559       8.640e-08         0
     38030     37854       7.760e-04         0
     46298     46122       8.640e-03         0
     46298     46297       8.640e-03         0
     46649     46473       8.640e-03         0
     46649     46648       8.640e-03         0
     47000     46824       8.640e-03         0
     47000     46999       8.640e-03         0
     47351     47175       8.640e-03         0
     47351     47350       8.640e-03         0
     46825     46824       8.640e-03         0
     47350     47526       8.640e-03         0
     47526     47350       8.640e-03         0
     47175     47176       8.640e-03         0
     47176     47175       8.640e-03         0
     46473     46474       8.640e-03         0
     45596     45597       8.640e-03         0
     45245     45069       8.640e-03         0
     45245     45244       8.640e-03         0
     45947     45946       8.640e-03         0
     46122     46123       8.640e-03         0
     46123     46122       8.640e-03         0
     45771     45947       8.640e-03         0
     48589     48590       6.480e-04         0
     48765     48766       6.480e-04         0
     48941     48942       6.480e-04         0
     49117     49118       6.480e-04         0
     49293     49294       6.480e-04         0
     49469     49470       6.480e-04         0
     49645     49646       6.480e-04         0
     49821     49822       6.480e-04         0
     49997     49998       6.480e-04         0
     50173     50174       6.480e-04         0
     50349     50350       6.480e-04         0
     50525     50526       6.480e-04         0
     50701     50702       6.480e-04         0
     50877     50878       6.480e-04         0
     51053     51054       6.480e-04         0
     51229     51230       6.480e-04         0
     51405     51406       6.480e-04         0
     51581     51582       6.480e-04         0
     51757     51758       6.480e-04         0
     51933     51934       6.480e-04         0
     52109     52110       6.480e-04         0
     52285     52286       6.480e-04         0
     52461     52462       6.480e-04         0
     52637     52638       6.480e-04         0
     52813     52814       6.480e-04         0
     52989     52990       6.480e-04         0
     53165     53166       6.480e-04         0
     53341     53342       6.480e-04         0
     53517     53518       6.480e-04         0
     53693     53694       6.480e-04         0
     53869     53870       6.480e-04         0
     54045     54046       6.480e-04         0
     54221     54222       6.480e-04         0
     54397     54398       6.480e-04         0
     54573     54574       6.480e-04         0
     54749     54750       6.480e-04         0
     54925     54926       6.480e-04         0
     55101     55102       6.480e-04         0
     55277     55278       6.480e-04         0
     55453     55454       6.480e-04         0
     55629     55630       6.480e-04         0
     55805     55806       6.480e-04         0
     55981     55982       6.480e-04         0
     56157     56158       6.480e-04         0
     56333     56334       6.480e-04         0
     56509     56510       6.480e-04         0
     56685     56686       6.480e-04         0
     56861     56862       6.480e-04         0
     57037     57038       7.776e-04         0
     57213     57214       7.776e-04         0
     57390     57214       7.776e-04         0
     57390     57391       7.776e-04         0
     57566     57567       7.776e-04         0
     48413     48414       6.480e-04         0
     48414     48413       6.480e-04         0
     48237     48238       6.480e-04         0
     48238     48237       6.480e-04         0
     48061     48062       6.480e-04         0
     48062     48061       6.480e-04         0
     47885     47886       6.480e-04         0
     47886     47885       6.480e-04         0
     47709     47710       6.480e-04         0
     47710     47709       6.480e-04         0
     47533     47534       6.480e-04         0
     47534     47533       6.480e-04         0
     47357     47358       6.480e-04         0
     47358     47357       6.480e-04         0
     47182     47181       6.480e-04         0
     45246     45245       6.480e-04         0
     45422     45421       6.480e-04         0
     45597     45598       6.480e-04         0
     45598     45597       6.480e-04         0
     45773     45774       6.480e-04         0
     45774     45773       6.480e-04         0
     45949     45950       6.480e-04         0
     45950     45949       6.480e-04         0
     46125     46126       6.480e-04         0
     46126     46125       6.480e-04         0
     47005     47006       6.480e-04         0
     47006     47005       6.480e-04         0
     46829     46830       6.480e-04         0
     46830     46829       6.480e-04         0
     45420     45421       8.640e-03         0
     46301     46302       6.480e-04         0
     46302     46301       6.480e-04         0
     46477     46478       6.480e-04         0
     46478     46477       6.480e-04         0
     46653     46654       6.480e-04         0
     46654     46653       6.480e-04         0
     39789     39790       6.480e-04         0
     39966     39965       6.480e-04         0
     40141     40142       6.480e-04         0
     40142     40141       6.480e-04         0
     40317     40318       6.480e-04         0
     40318     40317       6.480e-04         0
     40493     40494       6.480e-04         0
     40494     40493       6.480e-04         0
     40669     40670       6.480e-04         0
     40670     40669       6.480e-04         0
     40845     40846       6.480e-04         0
     40846     40845       6.480e-04         0
     41021     41022       6.480e-04         0
     41022     41021       6.480e-04         0
     41197     41198       6.480e-04         0
     41198     41197       6.480e-04         0
     41373     41374       6.480e-04         0
     41374     41373       6.480e-04         0
     41549     41550       6.480e-04         0
     41550     41549       6.480e-04         0
     41725     41726       6.480e-04         0
     41726     41725       6.480e-04         0
     41901     41902       6.480e-04         0
     41902     41901       6.480e-04         0
     42077     42078       6.480e-04         0
     42078     42077       6.480e-04         0
     42253     42254       6.480e-04         0
     42254     42253       6.480e-04         0
     44013     44014       6.480e-04         0
     44014     44013       6.480e-04         0
     43837     43838       6.480e-04         0
     43838     43837       6.480e-04         0
     42957     42958       6.480e-04         0
     42958     42957       6.480e-04         0
     42781     42782       6.480e-04         0
     42782     42781       6.480e-04         0
     42605     42606       6.480e-04         0
     42606     42605       6.480e-04         0
     42429     42430       6.480e-04         0
     42430     42429       6.480e-04         0
     43309     43310       6.480e-04         0
     43310     43309       6.480e-04         0
     43133     43134       6.480e-04         0
     43134     43133       6.480e-04         0
     43485     43486       6.480e-04         0
     43486     43485       6.480e-04         0
     43661     43662       6.480e-04         0
     43662     43661       6.480e-04         0
     44189     44190       6.480e-04         0
     44190     44189       6.480e-04         0
     44717     44718       6.480e-04         0
     44893     44894       6.480e-04         0
     45069     45070       6.480e-04         0
     45070     45069       6.480e-04         0
     44365     44366       6.480e-04         0
     44366     44365       6.480e-04         0
     44541     44542       6.480e-04         0
     40206     40382       2.160e-05         0
     40207     40383       2.160e-05         0
     40208     40384       2.160e-05         0
     40209     40385       2.160e-05         0
     40210     40209       2.160e-05         0
     40377     40553       2.160e-05         0
     40379     40555       2.160e-05         0
     40380     40556       2.160e-05         0
     40381     40205       2.160e-05         0
     40381     40380       2.160e-05         0
     40549     40725       2.160e-05         0
     40550     40726       2.160e-05         0
     40551     40727       2.160e-05         0
     40552     40376       2.160e-05         0
     40552     40551       2.160e-05         0
     40722     40898       2.160e-05         0
     40723     40899       2.160e-05         0
     40724     40548       2.160e-05         0
     40724     40723       2.160e-05         0
     40034     40210       2.160e-05         0
     40378     40554       2.160e-05         0
     40554     40378       2.160e-05         0
     40895     41071       2.160e-05         0
     41067     41243       2.160e-05         0
     41068     41244       2.160e-05         0