# MODFLOW2000 Layer Property Flow (LPF) Package
        50  -1.000000e+030         0
  4
  0
  1.000000e+000
 0
 0
        11     1.000(10e12.4)                   -1     HYDRAULIC CONDUCTIVITY Layer   1
  5.0000e+01  5.0000e+01  5.0000e+01  5.0000e+01  5.0000e+01  5.0000e+01  5.0000e+01  5.0000e+01  5.0000e+01  5.0000e+01
  5.0000e+01  5.0000e+01  5.0000e+01  5.0000e+01  5.0000e+01  5.0000e+01  5.0000e+01  5.0000e+01  5.0000e+01  5.0000e+01
  5.0000e+01  5.0000e+01  5.0000e+01  5.0000e+01  5.0000e+01  5.0000e+01  5.0000e+01  5.0000e+01  5.0000e+01  5.0000e+01
  5.0000e+01  5.0000e+01  5.0000e+01  5.0000e+01  5.0000e+01  5.0000e+01  5.0000e+01  5.0000e+01  5.0000e+01  5.0000e+01
  5.0000e+01  5.0000e+01  5.0000e+01  5.0000e+01  5.0000e+01  5.0000e+01  5.0000e+01  5.0000e+01  5.0000e+01  5.0000e+01
  5.0000e+01  5.0000e+01  5.0000e+01  5.0000e+01  5.0000e+01  5.0000e+01  5.0000e+01  5.0000e+01  5.0000e+01  5.0000e+01
  5.0000e+01  5.0000e+01  5.0000e+01  5.0000e+01  5.0000e+01  5.0000e+01  5.0000e+01  5.0000e+01  5.0000e+01  5.0000e+01
  5.0000e+01  5.0000e+01  5.0000e+01  5.0000e+01  5.0000e+01  5.0000e+01  5.0000e+01  5.0000e+01  5.0000e+01  5.0000e+01
  5.0000e+01  5.0000e+01  5.0000e+01  5.0000e+01  5.0000e+01  5.0000e+01  5.0000e+01  5.0000e+01  5.0000e+01  5.0000e+01
  5.0000e+01  5.0000e+01  5.0000e+01  5.0000e+01  5.0000e+01  5.0000e+01  5.0000e+01  5.0000e+01  5.0000e+01  5.0000e+01
  5.0000e+01  5.0000e+01  5.0000e+01  5.0000e+01  5.0000e+01  5.0000e+01  5.0000e+01  5.0000e+01  5.0000e+01  5.0000e+01
  5.0000e+01  5.0000e+01  5.0000e+01  5.0000e+01  5.0000e+01  5.0000e+01  5.0000e+01  5.0000e+01  5.0000e+01  5.0000e+01
  5.0000e+01  5.0000e+01  5.0000e+01  5.0000e+01  5.0000e+01  5.0000e+01  5.0000e+01  5.0000e+01  5.0000e+01  5.0000e+01
  5.0000e+01  5.0000e+01  5.0000e+01  5.0000e+01  5.0000e+01  5.0000e+01  5.0000e+01  5.0000e+01  5.0000e+01  5.0000e+01
  5.0000e+01  5.0000e+01  5.0000e+01  5.0000e+01  5.0000e+01  5.0000e+01  5.0000e+01  5.0000e+01  5.0000e+01  5.0000e+01
  5.0000e+01  5.0000e+01  5.0000e+01  5.0000e+01  5.0000e+01  5.0000e+01  5.0000e+01  5.0000e+01  5.0000e+01  5.0000e+01
  5.0000e+01  5.0000e+01  5.0000e+01  5.0000e+01  5.0000e+01  5.0000e+01  5.0000e+01  5.0000e+01  5.0000e+01  5.0000e+01
  5.0000e+01  5.0000e+01  5.0000e+01  5.0000e+01  5.0000e+01  5.0000e+01  5.0000e+01  5.0000e+01  5.0000e+01  5.0000e+01
  5.0000e+01  5.0000e+01  5.0000e+01  5.0000e+01  5.0000e+01  5.0000e+01  5.0000e+01  5.0000e+01  5.0000e+01  5.0000e+01
  5.0000e+01  5.0000e+01  5.0000e+01  5.0000e+01  5.0000e+01  5.0000e+01  5.0000e+01  5.0000e+01  5.0000e+01  5.0000e+01
  5.0000e+01  5.0000e+01  5.0000e+01  5.0000e+01  5.0000e+01  5.0000e+01  5.0000e+01  5.0000e+01  5.0000e+01  5.0000e+01
  5.0000e+01  5.0000e+01  5.0000e+01  5.0000e+01  5.0000e+01  5.0000e+01  5.0000e+01  5.0000e+01  5.0000e+01  5.0000e+01
  5.0000e+01  5.0000e+01  5.0000e+01  5.0000e+01  5.0000e+01  5.0000e+01  5.0000e+01  5.0000e+01  5.0000e+01  5.0000e+01
  5.0000e+01  5.0000e+01  5.0000e+01  5.0000e+01  5.0000e+01  5.0000e+01  5.0000e+01  5.0000e+01  5.0000e+01  5.0000e+01
  5.0000e+01  5.0000e+01  5.0000e+01  5.0000e+01  5.0000e+01  5.0000e+01  5.0000e+01  5.0000e+01  5.0000e+01  5.0000e+01
  5.0000e+01  5.0000e+01  5.0000e+01  5.0000e+01  5.0000e+01  5.0000e+01  5.0000e+01  5.0000e+01  5.0000e+01  5.0000e+01
  5.0000e+01  5.0000e+01  5.0000e+01  5.0000e+01  5.0000e+01  5.0000e+01  5.0000e+01  5.0000e+01  5.0000e+01  5.0000e+01
  5.0000e+01  5.0000e+01  5.0000e+01  5.0000e+01  5.0000e+01  5.0000e+01  5.0000e+01  5.0000e+01  5.0000e+01  5.0000e+01
  5.0000e+01  5.0000e+01  5.0000e+01  5.0000e+01  5.0000e+01  5.0000e+01  5.0000e+01  5.0000e+01  5.0000e+01  5.0000e+01
  5.0000e+01  5.0000e+01  5.0000e+01  5.0000e+01  5.0000e+01  5.0000e+01  5.0000e+01  5.0000e+01  5.0000e+01  5.0000e+01
  5.0000e+01  5.0000e+01  5.0000e+01  5.0000e+01  5.0000e+01  5.0000e+01  5.0000e+01  5.0000e+01  5.0000e+01  5.0000e+01
  5.0000e+01  5.0000e+01  5.0000e+01  5.0000e+01  5.0000e+01  5.0000e+01  5.0000e+01  5.0000e+01  5.0000e+01  5.0000e+01
  5.0000e+01  5.0000e+01  5.0000e+01  5.0000e+01  5.0000e+01  5.0000e+01  5.0000e+01  5.0000e+01  5.0000e+01  5.0000e+01
  5.0000e+01  5.0000e+01  5.0000e+01  5.0000e+01  5.0000e+01  5.0000e+01  5.0000e+01  5.0000e+01  5.0000e+01  5.0000e+01
  5.0000e+01  5.0000e+01  5.0000e+01  5.0000e+01  5.0000e+01  5.0000e+01  5.0000e+01  5.0000e+01  5.0000e+01  5.0000e+01
  5.0000e+01  5.0000e+01  5.0000e+01  5.0000e+01  5.0000e+01  5.0000e+01  5.0000e+01  5.0000e+01  5.0000e+01  5.0000e+01
  5.0000e+01  5.0000e+01  5.0000e+01  5.0000e+01  5.0000e+01  5.0000e+01  5.0000e+01  5.0000e+01  5.0000e+01  5.0000e+01
  5.0000e+01  5.0000e+01  5.0000e+01  5.0000e+01  5.0000e+01  5.0000e+01  5.0000e+01  5.0000e+01  5.0000e+01  5.0000e+01
  5.0000e+01  5.0000e+01  5.0000e+01  5.0000e+01  5.0000e+01  5.0000e+01  5.0000e+01  5.0000e+01  5.0000e+01  5.0000e+01
  5.0000e+01  5.0000e+01  5.0000e+01  5.0000e+01  5.0000e+01  5.0000e+01  5.0000e+01  5.0000e+01  5.0000e+01  5.0000e+01
  5.0000e+01  5.0000e+01  5.0000e+01  5.0000e+01  5.0000e+01  5.0000e+01  5.0000e+01  5.0000e+01  5.0000e+01  5.0000e+01
  5.0000e+01  5.0000e+01  5.0000e+01  5.0000e+01  5.0000e+01  5.0000e+01  5.0000e+01  5.0000e+01  5.0000e+01  5.0000e+01
  5.0000e+01  5.0000e+01  5.0000e+01  5.0000e+01  5.0000e+01  5.0000e+01  5.0000e+01  5.0000e+01  5.0000e+01  5.0000e+01
  5.0000e+01  5.0000e+01  5.0000e+01  5.0000e+01  5.0000e+01  5.0000e+01  5.0000e+01  5.0000e+01  5.0000e+01  5.0000e+01
  5.0000e+01  5.0000e+01  5.0000e+01  5.0000e+01  5.0000e+01  5.0000e+01  5.0000e+01  5.0000e+01  5.0000e+01  5.0000e+01
  5.0000e+01  5.0000e+01  5.0000e+01  5.0000e+01  5.0000e+01  5.0000e+01  5.0000e+01  5.0000e+01  5.0000e+01  5.0000e+01
  5.0000e+01  5.0000e+01  5.0000e+01  5.0000e+01  5.0000e+01  5.0000e+01  5.0000e+01  5.0000e+01  5.0000e+01  5.0000e+01
  5.0000e+01  5.0000e+01  5.0000e+01  5.0000e+01  5.0000e+01  5.0000e+01  5.0000e+01  5.0000e+01  5.0000e+01  5.0000e+01
  5.0000e+01  5.0000e+01  5.0000e+01  5.0000e+01  5.0000e+01  5.0000e+01  5.0000e+01  5.0000e+01  5.0000e+01  5.0000e+01
  5.0000e+01  5.0000e+01  5.0000e+01  5.0000e+01  5.0000e+01  5.0000e+01  5.0000e+01  5.0000e+01  5.0000e+01  5.0000e+01
  5.0000e+01  5.0000e+01  5.0000e+01  5.0000e+01  5.0000e+01  5.0000e+01  5.0000e+01  5.0000e+01  5.0000e+01  5.0000e+01
  5.0000e+01  5.0000e+01  5.0000e+01  5.0000e+01  5.0000e+01  5.0000e+01  5.0000e+01  5.0000e+01  5.0000e+01  5.0000e+01
  5.0000e+01  5.0000e+01  5.0000e+01  5.0000e+01  5.0000e+01  5.0000e+01  5.0000e+01  5.0000e+01  5.0000e+01  5.0000e+01
  5.0000e+01  5.0000e+01  5.0000e+01  5.0000e+01  5.0000e+01  5.0000e+01  5.0000e+01  5.0000e+01  5.0000e+01  5.0000e+01
  5.0000e+01  5.0000e+01  5.0000e+01  5.0000e+01  5.0000e+01  5.0000e+01  5.0000e+01  5.0000e+01  5.0000e+01  5.0000e+01
  5.0000e+01  5.0000e+01  5.0000e+01  5.0000e+01  5.0000e+01  5.0000e+01  5.0000e+01  5.0000e+01  5.0000e+01  5.0000e+01
  5.0000e+01  5.0000e+01  5.0000e+01  5.0000e+01  5.0000e+01  5.0000e+01  5.0000e+01  5.0000e+01  5.0000e+01  5.0000e+01
  5.0000e+01  5.0000e+01  5.0000e+01  5.0000e+01  5.0000e+01  5.0000e+01  5.0000e+01  5.0000e+01  5.0000e+01  5.0000e+01
  5.0000e+01  5.0000e+01  5.0000e+01  5.0000e+01  5.0000e+01  5.0000e+01  5.0000e+01  5.0000e+01  5.0000e+01  5.0000e+01
  5.0000e+01  5.0000e+01  5.0000e+01  5.0000e+01  5.0000e+01  5.0000e+01  5.0000e+01  5.0000e+01  5.0000e+01  5.0000e+01
  5.0000e+01  5.0000e+01  5.0000e+01  5.0000e+01  5.0000e+01  5.0000e+01  5.0000e+01  5.0000e+01  5.0000e+01  5.0000e+01
  5.0000e+01  5.0000e+01  5.0000e+01  5.0000e+01  5.0000e+01  5.0000e+01  5.0000e+01  5.0000e+01  5.0000e+01  5.0000e+01
  5.0000e+01  5.0000e+01  5.0000e+01  5.0000e+01  5.0000e+01  5.0000e+01  5.0000e+01  5.0000e+01  5.0000e+01  5.0000e+01
  5.0000e+01  5.0000e+01  5.0000e+01  5.0000e+01  5.0000e+01  5.0000e+01  5.0000e+01  5.0000e+01  5.0000e+01  5.0000e+01
  5.0000e+01  5.0000e+01  5.0000e+01  5.0000e+01  5.0000e+01  5.0000e+01  5.0000e+01  5.0000e+01  5.0000e+01  5.0000e+01
  5.0000e+01  5.0000e+01  5.0000e+01  5.0000e+01  5.0000e+01  5.0000e+01  5.0000e+01  5.0000e+01  5.0000e+01  5.0000e+01
  5.0000e+01  5.0000e+01  5.0000e+01  5.0000e+01  5.0000e+01  5.0000e+01  5.0000e+01  5.0000e+01  5.0000e+01  5.0000e+01
  5.0000e+01  5.0000e+01  5.0000e+01  5.0000e+01  5.0000e+01  5.0000e+01  5.0000e+01  5.0000e+01  5.0000e+01  5.0000e+01
  5.0000e+01  5.0000e+01  5.0000e+01  5.0000e+01  5.0000e+01  5.0000e+01  5.0000e+01  5.0000e+01  5.0000e+01  5.0000e+01
  5.0000e+01  5.0000e+01  5.0000e+01  5.0000e+01  5.0000e+01  5.0000e+01  5.0000e+01  5.0000e+01  5.0000e+01  5.0000e+01
  5.0000e+01  5.0000e+01  5.0000e+01  5.0000e+01  5.0000e+01  5.0000e+01  5.0000e+01  5.0000e+01  5.0000e+01  5.0000e+01
  5.0000e+01  5.0000e+01  5.0000e+01  5.0000e+01  5.0000e+01  5.0000e+01  5.0000e+01  5.0000e+01  5.0000e+01  5.0000e+01
  5.0000e+01  5.0000e+01  5.0000e+01  5.0000e+01  5.0000e+01  5.0000e+01  5.0000e+01  5.0000e+01  5.0000e+01  5.0000e+01
  5.0000e+01  5.0000e+01  5.0000e+01  5.0000e+01  5.0000e+01  5.0000e+01  5.0000e+01  5.0000e+01  5.0000e+01  5.0000e+01
  5.0000e+01  5.0000e+01  5.0000e+01  5.0000e+01  5.0000e+01  5.0000e+01  5.0000e+01  5.0000e+01  5.0000e+01  5.0000e+01
  5.0000e+01  5.0000e+01  5.0000e+01  5.0000e+01  5.0000e+01  5.0000e+01  5.0000e+01  5.0000e+01  5.0000e+01  5.0000e+01
  5.0000e+01  5.0000e+01  5.0000e+01  5.0000e+01  5.0000e+01  5.0000e+01  5.0000e+01  5.0000e+01  5.0000e+01  5.0000e+01
  5.0000e+01  5.0000e+01  5.0000e+01  5.0000e+01  5.0000e+01  5.0000e+01  5.0000e+01  5.0000e+01  5.0000e+01  5.0000e+01
  5.0000e+01  5.0000e+01  5.0000e+01  5.0000e+01  5.0000e+01  5.0000e+01  5.0000e+01  5.0000e+01  5.0000e+01  5.0000e+01
  5.0000e+01  5.0000e+01  5.0000e+01  5.0000e+01  5.0000e+01  5.0000e+01  5.0000e+01  5.0000e+01  5.0000e+01  5.0000e+01
  5.0000e+01  5.0000e+01  5.0000e+01  5.0000e+01  5.0000e+01  5.0000e+01  5.0000e+01  5.0000e+01  5.0000e+01  5.0000e+01
  5.0000e+01  5.0000e+01  5.0000e+01  5.0000e+01  5.0000e+01  5.0000e+01  5.0000e+01  5.0000e+01  5.0000e+01  5.0000e+01
  5.0000e+01  5.0000e+01  5.0000e+01  5.0000e+01  5.0000e+01  5.0000e+01  5.0000e+01  5.0000e+01  5.0000e+01  5.0000e+01
  5.0000e+01  5.0000e+01  5.0000e+01  5.0000e+01  5.0000e+01  5.0000e+01  5.0000e+01  5.0000e+01  5.0000e+01  5.0000e+01
  5.0000e+01  5.0000e+01  5.0000e+01  5.0000e+01  5.0000e+01  5.0000e+01  5.0000e+01  5.0000e+01  5.0000e+01  5.0000e+01
  5.0000e+01  5.0000e+01  5.0000e+01  5.0000e+01  5.0000e+01  5.0000e+01  5.0000e+01  5.0000e+01  5.0000e+01  5.0000e+01
  5.0000e+01  5.0000e+01  5.0000e+01  5.0000e+01  5.0000e+01  5.0000e+01  5.0000e+01  5.0000e+01  5.0000e+01  5.0000e+01
  5.0000e+01  5.0000e+01  5.0000e+01  5.0000e+01  5.0000e+01  5.0000e+01  5.0000e+01  5.0000e+01  5.0000e+01  5.0000e+01
  5.0000e+01  5.0000e+01  5.0000e+01  5.0000e+01  5.0000e+01  5.0000e+01  5.0000e+01  5.0000e+01  5.0000e+01  5.0000e+01
  5.0000e+01  5.0000e+01  5.0000e+01  5.0000e+01  5.0000e+01  5.0000e+01  5.0000e+01  5.0000e+01  5.0000e+01  5.0000e+01
  5.0000e+01  5.0000e+01  5.0000e+01  5.0000e+01  5.0000e+01  5.0000e+01  5.0000e+01  5.0000e+01  5.0000e+01  5.0000e+01
  5.0000e+01  5.0000e+01  5.0000e+01  5.0000e+01  5.0000e+01  5.0000e+01  5.0000e+01  5.0000e+01  5.0000e+01  5.0000e+01
  5.0000e+01  5.0000e+01  5.0000e+01  5.0000e+01  5.0000e+01  5.0000e+01  5.0000e+01  5.0000e+01  5.0000e+01  5.0000e+01
  5.0000e+01  5.0000e+01  5.0000e+01  5.0000e+01  5.0000e+01  5.0000e+01  5.0000e+01  5.0000e+01  5.0000e+01  5.0000e+01
  5.0000e+01  5.0000e+01  5.0000e+01  5.0000e+01  5.0000e+01  5.0000e+01  5.0000e+01  5.0000e+01  5.0000e+01  5.0000e+01
  5.0000e+01  5.0000e+01  5.0000e+01  5.0000e+01  5.0000e+01  5.0000e+01  5.0000e+01  5.0000e+01  5.0000e+01  5.0000e+01
  5.0000e+01  5.0000e+01  5.0000e+01  5.0000e+01  5.0000e+01  5.0000e+01  5.0000e+01  5.0000e+01  5.0000e+01  5.0000e+01
  5.0000e+01  5.0000e+01  5.0000e+01  5.0000e+01  5.0000e+01  5.0000e+01  5.0000e+01  5.0000e+01  5.0000e+01  5.0000e+01
  5.0000e+01  5.0000e+01  5.0000e+01  5.0000e+01  5.0000e+01  5.0000e+01  5.0000e+01  5.0000e+01  5.0000e+01  5.0000e+01
  5.0000e+01  5.0000e+01  5.0000e+01  5.0000e+01  5.0000e+01  5.0000e+01  5.0000e+01  5.0000e+01  5.0000e+01  5.0000e+01
  5.0000e+01  5.0000e+01  5.0000e+01  5.0000e+01  5.0000e+01  5.0000e+01  5.0000e+01  5.0000e+01  5.0000e+01  5.0000e+01
  5.0000e+01  5.0000e+01  5.0000e+01  5.0000e+01  5.0000e+01  5.0000e+01  5.0000e+01  5.0000e+01  5.0000e+01  5.0000e+01
  5.0000e+01  5.0000e+01  5.0000e+01  5.0000e+01  5.0000e+01  5.0000e+01  5.0000e+01  5.0000e+01  5.0000e+01  5.0000e+01
  5.0000e+01  5.0000e+01  5.0000e+01  5.0000e+01  5.0000e+01  5.0000e+01  5.0000e+01  5.0000e+01  5.0000e+01  5.0000e+01
  5.0000e+01  5.0000e+01  5.0000e+01  5.0000e+01  5.0000e+01  5.0000e+01  5.0000e+01  5.0000e+01  5.0000e+01  5.0000e+01
  5.0000e+01  5.0000e+01  5.0000e+01  5.0000e+01  5.0000e+01  5.0000e+01  5.0000e+01  5.0000e+01  5.0000e+01  5.0000e+01
  5.0000e+01  5.0000e+01  5.0000e+01  5.0000e+01  5.0000e+01  5.0000e+01  5.0000e+01  5.0000e+01  5.0000e+01  5.0000e+01
  5.0000e+01  5.0000e+01  5.0000e+01  5.0000e+01  5.0000e+01  5.0000e+01  5.0000e+01  5.0000e+01  5.0000e+01  5.0000e+01
  5.0000e+01  5.0000e+01  5.0000e+01  5.0000e+01  5.0000e+01  5.0000e+01  5.0000e+01  5.0000e+01  5.0000e+01  5.0000e+01
  5.0000e+01  5.0000e+01  5.0000e+01  5.0000e+01  5.0000e+01  5.0000e+01  5.0000e+01  5.0000e+01  5.0000e+01  5.0000e+01
  5.0000e+01  5.0000e+01  5.0000e+01  5.0000e+01  5.0000e+01  5.0000e+01  5.0000e+01  5.0000e+01  5.0000e+01  5.0000e+01
  5.0000e+01  5.0000e+01  5.0000e+01  5.0000e+01  5.0000e+01  5.0000e+01  5.0000e+01  5.0000e+01  5.0000e+01  5.0000e+01
  5.0000e+01  5.0000e+01  5.0000e+01  5.0000e+01  5.0000e+01  5.0000e+01  5.0000e+01  5.0000e+01  5.0000e+01  5.0000e+01
  5.0000e+01  5.0000e+01  5.0000e+01  5.0000e+01  5.0000e+01  5.0000e+01  5.0000e+01  5.0000e+01  5.0000e+01  5.0000e+01
  5.0000e+01  5.0000e+01  5.0000e+01  5.0000e+01  5.0000e+01  5.0000e+01  5.0000e+01  5.0000e+01  5.0000e+01  5.0000e+01
  5.0000e+01  5.0000e+01  5.0000e+01  5.0000e+01  5.0000e+01  5.0000e+01  5.0000e+01  5.0000e+01  5.0000e+01  5.0000e+01
  5.0000e+01  5.0000e+01  5.0000e+01  5.0000e+01  5.0000e+01  5.0000e+01  5.0000e+01  5.0000e+01  5.0000e+01  5.0000e+01
  5.0000e+01  5.0000e+01  5.0000e+01  5.0000e+01  5.0000e+01  5.0000e+01  5.0000e+01  5.0000e+01  5.0000e+01  5.0000e+01
  5.0000e+01  5.0000e+01  5.0000e+01  5.0000e+01  5.0000e+01  5.0000e+01  5.0000e+01  5.0000e+01  5.0000e+01  5.0000e+01
  5.0000e+01  5.0000e+01  5.0000e+01  5.0000e+01  5.0000e+01  5.0000e+01  5.0000e+01  5.0000e+01  5.0000e+01  5.0000e+01
  5.0000e+01  5.0000e+01  5.0000e+01  5.0000e+01  5.0000e+01  5.0000e+01  5.0000e+01  5.0000e+01  5.0000e+01  5.0000e+01
  5.0000e+01  5.0000e+01  5.0000e+01  5.0000e+01  5.0000e+01  5.0000e+01  5.0000e+01  5.0000e+01  5.0000e+01  5.0000e+01
  5.0000e+01  5.0000e+01  5.0000e+01  5.0000e+01  5.0000e+01  5.0000e+01  5.0000e+01  5.0000e+01  5.0000e+01  5.0000e+01
  5.0000e+01  5.0000e+01  5.0000e+01  5.0000e+01  5.0000e+01  5.0000e+01  5.0000e+01  5.0000e+01  5.0000e+01  5.0000e+01
  5.0000e+01  5.0000e+01  5.0000e+01  5.0000e+01  5.0000e+01  5.0000e+01  5.0000e+01  5.0000e+01  5.0000e+01  5.0000e+01
  5.0000e+01  5.0000e+01  5.0000e+01  5.0000e+01  5.0000e+01  5.0000e+01  5.0000e+01  5.0000e+01  5.0000e+01  5.0000e+01
  5.0000e+01  5.0000e+01  5.0000e+01  5.0000e+01  5.0000e+01  5.0000e+01  5.0000e+01  5.0000e+01  5.0000e+01  5.0000e+01
  5.0000e+01  5.0000e+01  5.0000e+01  5.0000e+01  5.0000e+01  5.0000e+01  5.0000e+01  5.0000e+01  5.0000e+01  5.0000e+01
  5.0000e+01  5.0000e+01  5.0000e+01  5.0000e+01  5.0000e+01  5.0000e+01  5.0000e+01  5.0000e+01  5.0000e+01  5.0000e+01
  5.0000e+01  5.0000e+01  5.0000e+01  5.0000e+01  5.0000e+01  5.0000e+01  5.0000e+01  5.0000e+01  5.0000e+01  5.0000e+01
  5.0000e+01  5.0000e+01  5.0000e+01  5.0000e+01  5.0000e+01  5.0000e+01  5.0000e+01  5.0000e+01  5.0000e+01  5.0000e+01
  5.0000e+01  5.0000e+01  5.0000e+01  5.0000e+01  5.0000e+01  5.0000e+01  5.0000e+01  5.0000e+01  5.0000e+01  5.0000e+01
  5.0000e+01  5.0000e+01  5.0000e+01  5.0000e+01  5.0000e+01  5.0000e+01  5.0000e+01  5.0000e+01  5.0000e+01  5.0000e+01
  5.0000e+01  5.0000e+01  5.0000e+01  5.0000e+01  5.0000e+01  5.0000e+01  5.0000e+01  5.0000e+01  5.0000e+01  5.0000e+01
  5.0000e+01  5.0000e+01  5.0000e+01  5.0000e+01  5.0000e+01  5.0000e+01  5.0000e+01  5.0000e+01  5.0000e+01  5.0000e+01
  5.0000e+01  5.0000e+01  5.0000e+01  5.0000e+01  5.0000e+01  5.0000e+01  5.0000e+01  5.0000e+01  5.0000e+01  5.0000e+01
  5.0000e+01  5.0000e+01  5.0000e+01  5.0000e+01  5.0000e+01  5.0000e+01  5.0000e+01  5.0000e+01  5.0000e+01  5.0000e+01
  5.0000e+01  5.0000e+01  5.0000e+01  5.0000e+01  5.0000e+01  5.0000e+01  5.0000e+01  5.0000e+01  5.0000e+01  5.0000e+01
  5.0000e+01  5.0000e+01  5.0000e+01  5.0000e+01  5.0000e+01  5.0000e+01  5.0000e+01  5.0000e+01  5.0000e+01  5.0000e+01
  5.0000e+01  5.0000e+01  5.0000e+01  5.0000e+01  5.0000e+01  5.0000e+01  5.0000e+01  5.0000e+01  5.0000e+01  5.0000e+01
  5.0000e+01  5.0000e+01  5.0000e+01  5.0000e+01  5.0000e+01  5.0000e+01  5.0000e+01  5.0000e+01  5.0000e+01  5.0000e+01
  5.0000e+01  5.0000e+01  5.0000e+01  5.0000e+01  5.0000e+01  5.0000e+01  5.0000e+01  5.0000e+01  5.0000e+01  5.0000e+01
  5.0000e+01  5.0000e+01  5.0000e+01  5.0000e+01  5.0000e+01  5.0000e+01  5.0000e+01  5.0000e+01  5.0000e+01  5.0000e+01
  5.0000e+01  5.0000e+01  5.0000e+01  5.0000e+01  5.0000e+01  5.0000e+01  5.0000e+01  5.0000e+01  5.0000e+01  5.0000e+01
  5.0000e+01  5.0000e+01  5.0000e+01  5.0000e+01  5.0000e+01  5.0000e+01  5.0000e+01  5.0000e+01  5.0000e+01  5.0000e+01
  5.0000e+01  5.0000e+01  5.0000e+01  5.0000e+01  5.0000e+01  5.0000e+01  5.0000e+01  5.0000e+01  5.0000e+01  5.0000e+01
  5.0000e+01  5.0000e+01  5.0000e+01  5.0000e+01  5.0000e+01  5.0000e+01  5.0000e+01  5.0000e+01  5.0000e+01  5.0000e+01
  5.0000e+01  5.0000e+01  5.0000e+01  5.0000e+01  5.0000e+01  5.0000e+01  5.0000e+01  5.0000e+01  5.0000e+01  5.0000e+01
  5.0000e+01  5.0000e+01  5.0000e+01  5.0000e+01  5.0000e+01  5.0000e+01  5.0000e+01  5.0000e+01  5.0000e+01  5.0000e+01
  5.0000e+01  5.0000e+01  5.0000e+01  5.0000e+01  5.0000e+01  5.0000e+01  5.0000e+01  5.0000e+01  5.0000e+01  5.0000e+01
  5.0000e+01  5.0000e+01  5.0000e+01  5.0000e+01  5.0000e+01  5.0000e+01  5.0000e+01  5.0000e+01  5.0000e+01  5.0000e+01
  5.0000e+01  5.0000e+01  5.0000e+01  5.0000e+01  5.0000e+01  5.0000e+01  5.0000e+01  5.0000e+01  5.0000e+01  5.0000e+01
  5.0000e+01  5.0000e+01  5.0000e+01  5.0000e+01  5.0000e+01  5.0000e+01  5.0000e+01  5.0000e+01  5.0000e+01  5.0000e+01
  5.0000e+01  5.0000e+01  5.0000e+01  5.0000e+01  5.0000e+01  5.0000e+01  5.0000e+01  5.0000e+01  5.0000e+01  5.0000e+01
  5.0000e+01  5.0000e+01  5.0000e+01  5.0000e+01  5.0000e+01  5.0000e+01  5.0000e+01  5.0000e+01  5.0000e+01  5.0000e+01
  5.0000e+01  5.0000e+01  5.0000e+01  5.0000e+01  5.0000e+01  5.0000e+01  5.0000e+01  5.0000e+01  5.0000e+01  5.0000e+01
  5.0000e+01  5.0000e+01  5.0000e+01  5.0000e+01  5.0000e+01  5.0000e+01  5.0000e+01  5.0000e+01  5.0000e+01  5.0000e+01
  5.0000e+01  5.0000e+01  5.0000e+01  5.0000e+01  5.0000e+01  5.0000e+01  5.0000e+01  5.0000e+01  5.0000e+01  5.0000e+01
  5.0000e+01  5.0000e+01  5.0000e+01  5.0000e+01  5.0000e+01  5.0000e+01  5.0000e+01  5.0000e+01  5.0000e+01  5.0000e+01
  5.0000e+01  5.0000e+01  5.0000e+01  5.0000e+01  5.0000e+01  5.0000e+01  5.0000e+01  5.0000e+01  5.0000e+01  5.0000e+01
  5.0000e+01  5.0000e+01  5.0000e+01  5.0000e+01  5.0000e+01  5.0000e+01  5.0000e+01  5.0000e+01  5.0000e+01  5.0000e+01
  5.0000e+01  5.0000e+01  5.0000e+01  5.0000e+01  5.0000e+01  5.0000e+01  5.0000e+01  5.0000e+01  5.0000e+01  5.0000e+01
  5.0000e+01  5.0000e+01  5.0000e+01  5.0000e+01  5.0000e+01  5.0000e+01  5.0000e+01  5.0000e+01  5.0000e+01  5.0000e+01
  5.0000e+01  5.0000e+01  5.0000e+01  5.0000e+01  5.0000e+01  5.0000e+01  5.0000e+01  5.0000e+01  5.0000e+01  5.0000e+01
  5.0000e+01  5.0000e+01  5.0000e+01  5.0000e+01  5.0000e+01  5.0000e+01  5.0000e+01  5.0000e+01  5.0000e+01  5.0000e+01
  5.0000e+01  5.0000e+01  5.0000e+01  5.0000e+01  5.0000e+01  5.0000e+01  5.0000e+01  5.0000e+01  5.0000e+01  5.0000e+01
  5.0000e+01  5.0000e+01  5.0000e+01  5.0000e+01  5.0000e+01  5.0000e+01  5.0000e+01  5.0000e+01  5.0000e+01  5.0000e+01
  5.0000e+01  5.0000e+01  5.0000e+01  5.0000e+01  5.0000e+01  5.0000e+01  5.0000e+01  5.0000e+01  5.0000e+01  5.0000e+01
  5.0000e+01  5.0000e+01  5.0000e+01  5.0000e+01  5.0000e+01  5.0000e+01  5.0000e+01  5.0000e+01  5.0000e+01  5.0000e+01
  5.0000e+01  5.0000e+01  5.0000e+01  5.0000e+01  5.0000e+01  5.0000e+01  5.0000e+01  5.0000e+01  5.0000e+01  5.0000e+01
  5.0000e+01  5.0000e+01  5.0000e+01  5.0000e+01  5.0000e+01  5.0000e+01  5.0000e+01  5.0000e+01  5.0000e+01  5.0000e+01
  5.0000e+01  5.0000e+01  5.0000e+01  5.0000e+01  5.0000e+01  5.0000e+01  5.0000e+01  5.0000e+01  5.0000e+01  5.0000e+01
  5.0000e+01  5.0000e+01  5.0000e+01  5.0000e+01  5.0000e+01  5.0000e+01  5.0000e+01  5.0000e+01  5.0000e+01  5.0000e+01
  5.0000e+01  5.0000e+01  5.0000e+01  5.0000e+01  5.0000e+01  5.0000e+01  5.0000e+01  5.0000e+01  5.0000e+01  5.0000e+01
  5.0000e+01  5.0000e+01  5.0000e+01  5.0000e+01  5.0000e+01  5.0000e+01  5.0000e+01  5.0000e+01  5.0000e+01  5.0000e+01
  5.0000e+01  5.0000e+01  5.0000e+01  5.0000e+01  5.0000e+01  5.0000e+01  5.0000e+01  5.0000e+01  5.0000e+01  5.0000e+01
  5.0000e+01  5.0000e+01  5.0000e+01  5.0000e+01  5.0000e+01  5.0000e+01  5.0000e+01  5.0000e+01  5.0000e+01  5.0000e+01
  5.0000e+01  5.0000e+01  5.0000e+01  5.0000e+01  5.0000e+01  5.0000e+01  5.0000e+01  5.0000e+01  5.0000e+01  5.0000e+01
  5.0000e+01  5.0000e+01  5.0000e+01  5.0000e+01  5.0000e+01  5.0000e+01  5.0000e+01  5.0000e+01  5.0000e+01  5.0000e+01
  5.0000e+01  5.0000e+01  5.0000e+01  5.0000e+01  5.0000e+01  5.0000e+01  5.0000e+01  5.0000e+01  5.0000e+01  5.0000e+01
  5.0000e+01  5.0000e+01  5.0000e+01  5.0000e+01  5.0000e+01  5.0000e+01  5.0000e+01  5.0000e+01  5.0000e+01  5.0000e+01
  5.0000e+01  5.0000e+01  5.0000e+01  5.0000e+01  5.0000e+01  5.0000e+01  5.0000e+01  5.0000e+01  5.0000e+01  5.0000e+01
  5.0000e+01  5.0000e+01  5.0000e+01  5.0000e+01  5.0000e+01  5.0000e+01  5.0000e+01  5.0000e+01  5.0000e+01  5.0000e+01
  5.0000e+01  5.0000e+01  5.0000e+01  5.0000e+01  5.0000e+01  5.0000e+01  5.0000e+01  5.0000e+01  5.0000e+01  5.0000e+01
  5.0000e+01  5.0000e+01  5.0000e+01  5.0000e+01  5.0000e+01  5.0000e+01  5.0000e+01  5.0000e+01  5.0000e+01  5.0000e+01
  5.0000e+01  5.0000e+01  5.0000e+01  5.0000e+01  5.0000e+01  5.0000e+01  5.0000e+01  5.0000e+01  5.0000e+01  5.0000e+01
  5.0000e+01  5.0000e+01  5.0000e+01  5.0000e+01  5.0000e+01  5.0000e+01  5.0000e+01  5.0000e+01  5.0000e+01  5.0000e+01
  5.0000e+01  5.0000e+01  5.0000e+01  5.0000e+01  5.0000e+01  5.0000e+01  5.0000e+01  5.0000e+01  5.0000e+01  5.0000e+01
  5.0000e+01  5.0000e+01  5.0000e+01  5.0000e+01  5.0000e+01  5.0000e+01  5.0000e+01  5.0000e+01  5.0000e+01  5.0000e+01
  5.0000e+01  5.0000e+01  5.0000e+01  5.0000e+01  5.0000e+01  5.0000e+01  5.0000e+01  5.0000e+01  5.0000e+01  5.0000e+01
  5.0000e+01  5.0000e+01  5.0000e+01  5.0000e+01  5.0000e+01  5.0000e+01  5.0000e+01  5.0000e+01  5.0000e+01  5.0000e+01
  5.0000e+01  5.0000e+01  5.0000e+01  5.0000e+01  5.0000e+01  5.0000e+01  5.0000e+01  5.0000e+01  5.0000e+01  5.0000e+01
  5.0000e+01  5.0000e+01  5.0000e+01  5.0000e+01  5.0000e+01  5.0000e+01  5.0000e+01  5.0000e+01  5.0000e+01  5.0000e+01
  5.0000e+01  5.0000e+01  5.0000e+01  5.0000e+01  5.0000e+01  5.0000e+01  5.0000e+01  5.0000e+01  5.0000e+01  5.0000e+01
  5.0000e+01  5.0000e+01  5.0000e+01  5.0000e+01  5.0000e+01  5.0000e+01  5.0000e+01  5.0000e+01  5.0000e+01  5.0000e+01
  5.0000e+01  5.0000e+01  5.0000e+01  5.0000e+01  5.0000e+01  5.0000e+01  5.0000e+01  5.0000e+01  5.0000e+01  5.0000e+01
  5.0000e+01  5.0000e+01  5.0000e+01  5.0000e+01  5.0000e+01  5.0000e+01  5.0000e+01  5.0000e+01  5.0000e+01  5.0000e+01
  5.0000e+01  5.0000e+01  5.0000e+01  5.0000e+01  5.0000e+01  5.0000e+01  5.0000e+01  5.0000e+01  5.0000e+01  5.0000e+01
  5.0000e+01  5.0000e+01  5.0000e+01  5.0000e+01  5.0000e+01  5.0000e+01  5.0000e+01  5.0000e+01  5.0000e+01  5.0000e+01
  5.0000e+01  5.0000e+01  5.0000e+01  5.0000e+01  5.0000e+01  5.0000e+01  5.0000e+01  5.0000e+01  5.0000e+01  5.0000e+01
  5.0000e+01  5.0000e+01  5.0000e+01  5.0000e+01  5.0000e+01  5.0000e+01  5.0000e+01  5.0000e+01  5.0000e+01  5.0000e+01
  5.0000e+01  5.0000e+01  5.0000e+01  5.0000e+01  5.0000e+01  5.0000e+01  5.0000e+01  5.0000e+01  5.0000e+01  5.0000e+01
  5.0000e+01  5.0000e+01  5.0000e+01  5.0000e+01  5.0000e+01  5.0000e+01  5.0000e+01  5.0000e+01  5.0000e+01  5.0000e+01
  5.0000e+01  5.0000e+01  5.0000e+01  5.0000e+01  5.0000e+01  5.0000e+01  5.0000e+01  5.0000e+01  5.0000e+01  5.0000e+01
  5.0000e+01  5.0000e+01  5.0000e+01  5.0000e+01  5.0000e+01  5.0000e+01  5.0000e+01  5.0000e+01  5.0000e+01  5.0000e+01
  5.0000e+01  5.0000e+01  5.0000e+01  5.0000e+01  5.0000e+01  5.0000e+01  5.0000e+01  5.0000e+01  5.0000e+01  5.0000e+01
  5.0000e+01  5.0000e+01  5.0000e+01  5.0000e+01  5.0000e+01  5.0000e+01  5.0000e+01  5.0000e+01  5.0000e+01  5.0000e+01
  5.0000e+01  5.0000e+01  5.0000e+01  5.0000e+01  5.0000e+01  5.0000e+01  5.0000e+01  5.0000e+01  5.0000e+01  5.0000e+01
  5.0000e+01  5.0000e+01  5.0000e+01  5.0000e+01  5.0000e+01  5.0000e+01  5.0000e+01  5.0000e+01  5.0000e+01  5.0000e+01
  5.0000e+01  5.0000e+01  5.0000e+01  5.0000e+01  5.0000e+01  5.0000e+01  5.0000e+01  5.0000e+01  5.0000e+01  5.0000e+01
  5.0000e+01  5.0000e+01  5.0000e+01  5.0000e+01  5.0000e+01  5.0000e+01  5.0000e+01  5.0000e+01  5.0000e+01  5.0000e+01
  5.0000e+01  5.0000e+01  5.0000e+01  5.0000e+01  5.0000e+01  5.0000e+01  5.0000e+01  5.0000e+01  5.0000e+01  5.0000e+01
  5.0000e+01  5.0000e+01  5.0000e+01  5.0000e+01  5.0000e+01  5.0000e+01  5.0000e+01  5.0000e+01  5.0000e+01  5.0000e+01
  5.0000e+01  5.0000e+01  5.0000e+01  5.0000e+01  5.0000e+01  5.0000e+01  5.0000e+01  5.0000e+01  5.0000e+01  5.0000e+01
  5.0000e+01  5.0000e+01  5.0000e+01  5.0000e+01  5.0000e+01  5.0000e+01  5.0000e+01  5.0000e+01  5.0000e+01  5.0000e+01
  5.0000e+01  5.0000e+01  5.0000e+01  5.0000e+01  5.0000e+01  5.0000e+01  5.0000e+01  5.0000e+01  5.0000e+01  5.0000e+01
  5.0000e+01  5.0000e+01  5.0000e+01  5.0000e+01  5.0000e+01  5.0000e+01  5.0000e+01  5.0000e+01  5.0000e+01  5.0000e+01
  5.0000e+01  5.0000e+01  5.0000e+01  5.0000e+01  5.0000e+01  5.0000e+01  5.0000e+01  5.0000e+01  5.0000e+01  5.0000e+01
  5.0000e+01  5.0000e+01  5.0000e+01  5.0000e+01  5.0000e+01  5.0000e+01  5.0000e+01  5.0000e+01  5.0000e+01  5.0000e+01
  5.0000e+01  5.0000e+01  5.0000e+01  5.0000e+01  5.0000e+01  5.0000e+01  5.0000e+01  5.0000e+01  5.0000e+01  5.0000e+01
  5.0000e+01  5.0000e+01  5.0000e+01  5.0000e+01  5.0000e+01  5.0000e+01  5.0000e+01  5.0000e+01  5.0000e+01  5.0000e+01
  5.0000e+01  5.0000e+01  5.0000e+01  5.0000e+01  5.0000e+01  5.0000e+01  5.0000e+01  5.0000e+01  5.0000e+01  5.0000e+01
  5.0000e+01  5.0000e+01  5.0000e+01  5.0000e+01  5.0000e+01  5.0000e+01  5.0000e+01  5.0000e+01  5.0000e+01  5.0000e+01
  5.0000e+01  5.0000e+01  5.0000e+01  5.0000e+01  5.0000e+01  5.0000e+01  5.0000e+01  5.0000e+01  5.0000e+01  5.0000e+01
  5.0000e+01  5.0000e+01  5.0000e+01  5.0000e+01  5.0000e+01  5.0000e+01  5.0000e+01  5.0000e+01  5.0000e+01  5.0000e+01
  5.0000e+01  5.0000e+01  5.0000e+01  5.0000e+01  5.0000e+01  5.0000e+01  5.0000e+01  5.0000e+01  5.0000e+01  5.0000e+01
  5.0000e+01  5.0000e+01  5.0000e+01  5.0000e+01  5.0000e+01  5.0000e+01  5.0000e+01  5.0000e+01  5.0000e+01  5.0000e+01
  5.0000e+01  5.0000e+01  5.0000e+01  5.0000e+01  5.0000e+01  5.0000e+01  5.0000e+01  5.0000e+01  5.0000e+01  5.0000e+01
  5.0000e+01  5.0000e+01  5.0000e+01  5.0000e+01  5.0000e+01  5.0000e+01  5.0000e+01  5.0000e+01  5.0000e+01  5.0000e+01
  5.0000e+01  5.0000e+01  5.0000e+01  5.0000e+01  5.0000e+01  5.0000e+01  5.0000e+01  5.0000e+01  5.0000e+01  5.0000e+01
  5.0000e+01  5.0000e+01  5.0000e+01  5.0000e+01  5.0000e+01  5.0000e+01  5.0000e+01  5.0000e+01  5.0000e+01  5.0000e+01
  5.0000e+01  5.0000e+01  5.0000e+01  5.0000e+01  5.0000e+01  5.0000e+01  5.0000e+01  5.0000e+01  5.0000e+01  5.0000e+01
  5.0000e+01  5.0000e+01  5.0000e+01  5.0000e+01  5.0000e+01  5.0000e+01  5.0000e+01  5.0000e+01  5.0000e+01  5.0000e+01
  5.0000e+01  5.0000e+01  5.0000e+01  5.0000e+01  5.0000e+01  5.0000e+01  5.0000e+01  5.0000e+01  5.0000e+01  5.0000e+01
  5.0000e+01  5.0000e+01  5.0000e+01  5.0000e+01  5.0000e+01  5.0000e+01  5.0000e+01  5.0000e+01  5.0000e+01  5.0000e+01
  5.0000e+01  5.0000e+01  5.0000e+01  5.0000e+01  5.0000e+01  5.0000e+01  5.0000e+01  5.0000e+01  5.0000e+01  5.0000e+01
  5.0000e+01  5.0000e+01  5.0000e+01  5.0000e+01  5.0000e+01  5.0000e+01  5.0000e+01  5.0000e+01  5.0000e+01  5.0000e+01
  5.0000e+01  5.0000e+01  5.0000e+01  5.0000e+01  5.0000e+01  5.0000e+01  5.0000e+01  5.0000e+01  5.0000e+01  5.0000e+01
  5.0000e+01  5.0000e+01  5.0000e+01  5.0000e+01  5.0000e+01  5.0000e+01  5.0000e+01  5.0000e+01  5.0000e+01  5.0000e+01
  5.0000e+01  5.0000e+01  5.0000e+01  5.0000e+01  5.0000e+01  5.0000e+01  5.0000e+01  5.0000e+01  5.0000e+01  5.0000e+01
  5.0000e+01  5.0000e+01  5.0000e+01  5.0000e+01  5.0000e+01  5.0000e+01  5.0000e+01  5.0000e+01  5.0000e+01  5.0000e+01
  5.0000e+01  5.0000e+01  5.0000e+01  5.0000e+01  5.0000e+01  5.0000e+01  5.0000e+01  5.0000e+01  5.0000e+01  5.0000e+01
  5.0000e+01  5.0000e+01  5.0000e+01  5.0000e+01  5.0000e+01  5.0000e+01  5.0000e+01  5.0000e+01  5.0000e+01  5.0000e+01
  5.0000e+01  5.0000e+01  5.0000e+01  5.0000e+01  5.0000e+01  5.0000e+01  5.0000e+01  5.0000e+01  5.0000e+01  5.0000e+01
  5.0000e+01  5.0000e+01  5.0000e+01  5.0000e+01  5.0000e+01  5.0000e+01  5.0000e+01  5.0000e+01  5.0000e+01  5.0000e+01
  5.0000e+01  5.0000e+01  5.0000e+01  5.0000e+01  5.0000e+01  5.0000e+01  5.0000e+01  5.0000e+01  5.0000e+01  5.0000e+01