# MODFLOW-USG Layer Property Flow (LPF) Package
 50 -1.000000e+030 0 0      CONSTANTCV NOVFC
 4 4 4
 0 0 0
 1.000000e+000
 1.000000e+000
 1.000000e+000
 0 0 0
 0 0 0
INTERNAL  1.000000e+000  (FREE)  -1  Kx Layer 1
 1.000000e-001 1.000000e-001 1.000000e-001 1.000000e-001 1.000000e-001 1.000000e-001 1.000000e-001 1.000000e-001 1.000000e-001 1.000000e-001
 1.000000e-001 1.000000e-001 1.000000e-001 1.000000e-001 1.000000e-001 1.000000e-001 1.000000e-001 1.000000e-001 1.000000e-001 1.000000e-001
 1.000000e-001 1.000000e-001 1.000000e-001 1.000000e-001 1.000000e-001 1.000000e-001 1.000000e-001 1.000000e-001 1.000000e-001 1.000000e-001
 1.000000e-001 1.000000e-001 1.000000e-001 1.000000e-001 1.000000e-001 1.000000e-001 1.000000e-001 1.000000e-001 1.000000e-001 1.000000e-001
 1.000000e-001 1.000000e-001 1.000000e-001 1.000000e-001 1.000000e-001 1.000000e-001 1.000000e-001 1.000000e-001 1.000000e-001 1.000000e-001
 1.000000e-001 1.000000e-001 1.000000e-001 1.000000e-001 1.000000e-001 1.000000e-001 1.000000e-001 1.000000e-001 1.000000e-001 1.000000e-001
 1.000000e-001 1.000000e-001 1.000000e-001 1.000000e-001 1.000000e-001 1.000000e-001 1.000000e-001 1.000000e-001 1.000000e-001 1.000000e-001
 1.000000e-001 1.000000e-001 1.000000e-001 1.000000e-001 1.000000e-001 1.000000e-001 1.000000e-001 1.000000e-001 1.000000e-001 1.000000e-001
 1.000000e-001 1.000000e-001 1.000000e-001 1.000000e-001 1.000000e-001 1.000000e-001 1.000000e-001 1.000000e-001 1.000000e-001 1.000000e-001
 1.000000e-001 1.000000e-001 1.000000e-001 1.000000e-001 1.000000e-001 1.000000e-001 1.000000e-001 1.000000e-001 1.000000e-001 1.000000e-001
 1.000000e-001 1.000000e-001 1.000000e-001 1.000000e-001 1.000000e-001 1.000000e-001 1.000000e-001 1.000000e-001 1.000000e-001 1.000000e-001
 1.000000e-001 1.000000e-001 1.000000e-001 1.000000e-001 1.000000e-001 1.000000e-001 1.000000e-001 1.000000e-001 1.000000e-001 1.000000e-001
 1.000000e-001 1.000000e-001 1.000000e-001 1.000000e-001 1.000000e-001 1.000000e-001 1.000000e-001 1.000000e-001 1.000000e-001 1.000000e-001
 1.000000e-001 1.000000e-001 1.000000e-001 1.000000e-001 1.000000e-001 1.000000e-001 1.000000e-001 1.000000e-001 1.000000e-001 1.000000e-001
 1.000000e-001 1.000000e-001 1.000000e-001 1.000000e-001 1.000000e-001 1.000000e-001 1.000000e-001 1.000000e-001 1.000000e-001 1.000000e-001
 1.000000e-001 1.000000e-001 1.000000e-001 1.000000e-001 1.000000e-001 1.000000e-001 1.000000e-001 1.000000e-001 1.000000e-001 1.000000e-001
INTERNAL  1.000000e+000  (FREE)  -1  Kz Layer 1
 1.000000e-001 1.000000e-001 1.000000e-001 1.000000e-001 1.000000e-001 1.000000e-001 1.000000e-001 1.000000e-001 1.000000e-001 1.000000e-001
 1.000000e-001 1.000000e-001 1.000000e-001 1.000000e-001 1.000000e-001 1.000000e-001 1.000000e-001 1.000000e-001 1.000000e-001 1.000000e-001
 1.000000e-001 1.000000e-001 1.000000e-001 1.000000e-001 1.000000e-001 1.000000e-001 1.000000e-001 1.000000e-001 1.000000e-001 1.000000e-001
 1.000000e-001 1.000000e-001 1.000000e-001 1.000000e-001 1.000000e-001 1.000000e-001 1.000000e-001 1.000000e-001 1.000000e-001 1.000000e-001
 1.000000e-001 1.000000e-001 1.000000e-001 1.000000e-001 1.000000e-001 1.000000e-001 1.000000e-001 1.000000e-001 1.000000e-001 1.000000e-001
 1.000000e-001 1.000000e-001 1.000000e-001 1.000000e-001 1.000000e-001 1.000000e-001 1.000000e-001 1.000000e-001 1.000000e-001 1.000000e-001
 1.000000e-001 1.000000e-001 1.000000e-001 1.000000e-001 1.000000e-001 1.000000e-001 1.000000e-001 1.000000e-001 1.000000e-001 1.000000e-001
 1.000000e-001 1.000000e-001 1.000000e-001 1.000000e-001 1.000000e-001 1.000000e-001 1.000000e-001 1.000000e-001 1.000000e-001 1.000000e-001
 1.000000e-001 1.000000e-001 1.000000e-001 1.000000e-001 1.000000e-001 1.000000e-001 1.000000e-001 1.000000e-001 1.000000e-001 1.000000e-001
 1.000000e-001 1.000000e-001 1.000000e-001 1.000000e-001 1.000000e-001 1.000000e-001 1.000000e-001 1.000000e-001 1.000000e-001 1.000000e-001
 1.000000e-001 1.000000e-001 1.000000e-001 1.000000e-001 1.000000e-001 1.000000e-001 1.000000e-001 1.000000e-001 1.000000e-001 1.000000e-001
 1.000000e-001 1.000000e-001 1.000000e-001 1.000000e-001 1.000000e-001 1.000000e-001 1.000000e-001 1.000000e-001 1.000000e-001 1.000000e-001
 1.000000e-001 1.000000e-001 1.000000e-001 1.000000e-001 1.000000e-001 1.000000e-001 1.000000e-001 1.000000e-001 1.000000e-001 1.000000e-001
 1.000000e-001 1.000000e-001 1.000000e-001 1.000000e-001 1.000000e-001 1.000000e-001 1.000000e-001 1.000000e-001 1.000000e-001 1.000000e-001
 1.000000e-001 1.000000e-001 1.000000e-001 1.000000e-001 1.000000e-001 1.000000e-001 1.000000e-001 1.000000e-001 1.000000e-001 1.000000e-001
 1.000000e-001 1.000000e-001 1.000000e-001 1.000000e-001 1.000000e-001 1.000000e-001 1.000000e-001 1.000000e-001 1.000000e-001 1.000000e-001
INTERNAL  1.000000e+000  (FREE)  -1  Ss Layer 1
 1.000000e-004 1.000000e-004 1.000000e-004 1.000000e-004 1.000000e-004 1.000000e-004 1.000000e-004 1.000000e-004 1.000000e-004 1.000000e-004
 1.000000e-004 1.000000e-004 1.000000e-004 1.000000e-004 1.000000e-004 1.000000e-004 1.000000e-004 1.000000e-004 1.000000e-004 1.000000e-004
 1.000000e-004 1.000000e-004 1.000000e-004 1.000000e-004 1.000000e-004 1.000000e-004 1.000000e-004 1.000000e-004 1.000000e-004 1.000000e-004
 1.000000e-004 1.000000e-004 1.000000e-004 1.000000e-004 1.000000e-004 1.000000e-004 1.000000e-004 1.000000e-004 1.000000e-004 1.000000e-004
 1.000000e-004 1.000000e-004 1.000000e-004 1.000000e-004 1.000000e-004 1.000000e-004 1.000000e-004 1.000000e-004 1.000000e-004 1.000000e-004
 1.000000e-004 1.000000e-004 1.000000e-004 1.000000e-004 1.000000e-004 1.000000e-004 1.000000e-004 1.000000e-004 1.000000e-004 1.000000e-004
 1.000000e-004 1.000000e-004 1.000000e-004 1.000000e-004 1.000000e-004 1.000000e-004 1.000000e-004 1.000000e-004 1.000000e-004 1.000000e-004
 1.000000e-004 1.000000e-004 1.000000e-004 1.000000e-004 1.000000e-004 1.000000e-004 1.000000e-004 1.000000e-004 1.000000e-004 1.000000e-004
 1.000000e-004 1.000000e-004 1.000000e-004 1.000000e-004 1.000000e-004 1.000000e-004 1.000000e-004 1.000000e-004 1.000000e-004 1.000000e-004
 1.000000e-004 1.000000e-004 1.000000e-004 1.000000e-004 1.000000e-004 1.000000e-004 1.000000e-004 1.000000e-004 1.000000e-004 1.000000e-004
 1.000000e-004 1.000000e-004 1.000000e-004 1.000000e-004 1.000000e-004 1.000000e-004 1.000000e-004 1.000000e-004 1.000000e-004 1.000000e-004
 1.000000e-004 1.000000e-004 1.000000e-004 1.000000e-004 1.000000e-004 1.000000e-004 1.000000e-004 1.000000e-004 1.000000e-004 1.000000e-004
 1.000000e-004 1.000000e-004 1.000000e-004 1.000000e-004 1.000000e-004 1.000000e-004 1.000000e-004 1.000000e-004 1.000000e-004 1.000000e-004
 1.000000e-004 1.000000e-004 1.000000e-004 1.000000e-004 1.000000e-004 1.000000e-004 1.000000e-004 1.000000e-004 1.000000e-004 1.000000e-004
 1.000000e-004 1.000000e-004 1.000000e-004 1.000000e-004 1.000000e-004 1.000000e-004 1.000000e-004 1.000000e-004 1.000000e-004 1.000000e-004
 1.000000e-004 1.000000e-004 1.000000e-004 1.000000e-004 1.000000e-004 1.000000e-004 1.000000e-004 1.000000e-004 1.000000e-004 1.000000e-004
INTERNAL  1.000000e+000  (FREE)  -1  Sy Layer 1
 1.000000e-001 1.000000e-001 1.000000e-001 1.000000e-001 1.000000e-001 1.000000e-001 1.000000e-001 1.000000e-001 1.000000e-001 1.000000e-001
 1.000000e-001 1.000000e-001 1.000000e-001 1.000000e-001 1.000000e-001 1.000000e-001 1.000000e-001 1.000000e-001 1.000000e-001 1.000000e-001
 1.000000e-001 1.000000e-001 1.000000e-001 1.000000e-001 1.000000e-001 1.000000e-001 1.000000e-001 1.000000e-001 1.000000e-001 1.000000e-001
 1.000000e-001 1.000000e-001 1.000000e-001 1.000000e-001 1.000000e-001 1.000000e-001 1.000000e-001 1.000000e-001 1.000000e-001 1.000000e-001
 1.000000e-001 1.000000e-001 1.000000e-001 1.000000e-001 1.000000e-001 1.000000e-001 1.000000e-001 1.000000e-001 1.000000e-001 1.000000e-001
 1.000000e-001 1.000000e-001 1.000000e-001 1.000000e-001 1.000000e-001 1.000000e-001 1.000000e-001 1.000000e-001 1.000000e-001 1.000000e-001
 1.000000e-001 1.000000e-001 1.000000e-001 1.000000e-001 1.000000e-001 1.000000e-001 1.000000e-001 1.000000e-001 1.000000e-001 1.000000e-001
 1.000000e-001 1.000000e-001 1.000000e-001 1.000000e-001 1.000000e-001 1.000000e-001 1.000000e-001 1.000000e-001 1.000000e-001 1.000000e-001
 1.000000e-001 1.000000e-001 1.000000e-001 1.000000e-001 1.000000e-001 1.000000e-001 1.000000e-001 1.000000e-001 1.000000e-001 1.000000e-001
 1.000000e-001 1.000000e-001 1.000000e-001 1.000000e-001 1.000000e-001 1.000000e-001 1.000000e-001 1.000000e-001 1.000000e-001 1.000000e-001
 1.000000e-001 1.000000e-001 1.000000e-001 1.000000e-001 1.000000e-001 1.000000e-001 1.000000e-001 1.000000e-001 1.000000e-001 1.000000e-001
 1.000000e-001 1.000000e-001 1.000000e-001 1.000000e-001 1.000000e-001 1.000000e-001 1.000000e-001 1.000000e-001 1.000000e-001 1.000000e-001
 1.000000e-001 1.000000e-001 1.000000e-001 1.000000e-001 1.000000e-001 1.000000e-001 1.000000e-001 1.000000e-001 1.000000e-001 1.000000e-001
 1.000000e-001 1.000000e-001 1.000000e-001 1.000000e-001 1.000000e-001 1.000000e-001 1.000000e-001 1.000000e-001 1.000000e-001 1.000000e-001
 1.000000e-001 1.000000e-001 1.000000e-001 1.000000e-001 1.000000e-001 1.000000e-001 1.000000e-001 1.000000e-001 1.000000e-001 1.000000e-001
 1.000000e-001 1.000000e-001 1.000000e-001 1.000000e-001 1.000000e-001 1.000000e-001 1.000000e-001 1.000000e-001 1.000000e-001 1.000000e-001
INTERNAL  1.000000e+000  (FREE)  -1  Kx Layer 2
 1.000000e-001 1.000000e-001 1.000000e-001 1.000000e-001 1.000000e-001 1.000000e-001 1.000000e-001 1.000000e-001 1.000000e-001 1.000000e-001
 1.000000e-001 1.000000e-001 1.000000e-001 1.000000e-001 1.000000e-001 1.000000e-001 1.000000e-001 1.000000e-001 1.000000e-001 1.000000e-001
 1.000000e-001 1.000000e-001 1.000000e-001 1.000000e-001 1.000000e-001 1.000000e-001 1.000000e-001 1.000000e-001 1.000000e-001 1.000000e-001
 1.000000e-001 1.000000e-001 1.000000e-001 1.000000e-001 1.000000e-001 1.000000e-001 1.000000e-001 1.000000e-001 1.000000e-001 1.000000e-001
 1.000000e-001 1.000000e-001 1.000000e-001 1.000000e-001 1.000000e-001 1.000000e-001 1.000000e-001 1.000000e-001 1.000000e-001 1.000000e-001
 1.000000e-001 1.000000e-001 1.000000e-001 1.000000e-001 1.000000e-001 1.000000e-001 1.000000e-001 1.000000e-001 1.000000e-001 1.000000e-001
 1.000000e-001 1.000000e-001 1.000000e-001 1.000000e-001 1.000000e-001 1.000000e-001 1.000000e-001 1.000000e-001 1.000000e-001 1.000000e-001
 1.000000e-001 1.000000e-001 1.000000e-001 1.000000e-001 1.000000e-001 1.000000e-001 1.000000e-001 1.000000e-001 1.000000e-001 1.000000e-001
 1.000000e-001 1.000000e-001 1.000000e-001 1.000000e-001 1.000000e-001 1.000000e-001 1.000000e-001 1.000000e-001 1.000000e-001 1.000000e-001
 1.000000e-001 1.000000e-001 1.000000e-001 1.000000e-001 1.000000e-001 1.000000e-001 1.000000e-001 1.000000e-001 1.000000e-001 1.000000e-001
 1.000000e-001 1.000000e-001 1.000000e-001 1.000000e-001 1.000000e-001 1.000000e-001 1.000000e-001 1.000000e-001 1.000000e-001 1.000000e-001
 1.000000e-001 1.000000e-001 1.000000e-001 1.000000e-001 1.000000e-001 1.000000e-001 1.000000e-001 1.000000e-001 1.000000e-001 1.000000e-001
 1.000000e-001 1.000000e-001 1.000000e-001 1.000000e-001 1.000000e-001 1.000000e-001 1.000000e-001 1.000000e-001 1.000000e-001 1.000000e-001
 1.000000e-001 1.000000e-001 1.000000e-001 1.000000e-001 1.000000e-001 1.000000e-001 1.000000e-001 1.000000e-001 1.000000e-001 1.000000e-001
 1.000000e-001 1.000000e-001 1.000000e-001 1.000000e-001 1.000000e-001 1.000000e-001 1.000000e-001 1.000000e-001 1.000000e-001 1.000000e-001
 1.000000e-001 1.000000e-001 1.000000e-001 1.000000e-001 1.000000e-001 1.000000e-001 1.000000e-001 1.000000e-001 1.000000e-001 1.000000e-001
INTERNAL  1.000000e+000  (FREE)  -1  Kz Layer 2
 1.000000e-001 1.000000e-001 1.000000e-001 1.000000e-001 1.000000e-001 1.000000e-001 1.000000e-001 1.000000e-001 1.000000e-001 1.000000e-001
 1.000000e-001 1.000000e-001 1.000000e-001 1.000000e-001 1.000000e-001 1.000000e-001 1.000000e-001 1.000000e-001 1.000000e-001 1.000000e-001
 1.000000e-001 1.000000e-001 1.000000e-001 1.000000e-001 1.000000e-001 1.000000e-001 1.000000e-001 1.000000e-001 1.000000e-001 1.000000e-001
 1.000000e-001 1.000000e-001 1.000000e-001 1.000000e-001 1.000000e-001 1.000000e-001 1.000000e-001 1.000000e-001 1.000000e-001 1.000000e-001
 1.000000e-001 1.000000e-001 1.000000e-001 1.000000e-001 1.000000e-001 1.000000e-001 1.000000e-001 1.000000e-001 1.000000e-001 1.000000e-001
 1.000000e-001 1.000000e-001 1.000000e-001 1.000000e-001 1.000000e-001 1.000000e-001 1.000000e-001 1.000000e-001 1.000000e-001 1.000000e-001
 1.000000e-001 1.000000e-001 1.000000e-001 1.000000e-001 1.000000e-001 1.000000e-001 1.000000e-001 1.000000e-001 1.000000e-001 1.000000e-001
 1.000000e-001 1.000000e-001 1.000000e-001 1.000000e-001 1.000000e-001 1.000000e-001 1.000000e-001 1.000000e-001 1.000000e-001 1.000000e-001
 1.000000e-001 1.000000e-001 1.000000e-001 1.000000e-001 1.000000e-001 1.000000e-001 1.000000e-001 1.000000e-001 1.000000e-001 1.000000e-001
 1.000000e-001 1.000000e-001 1.000000e-001 1.000000e-001 1.000000e-001 1.000000e-001 1.000000e-001 1.000000e-001 1.000000e-001 1.000000e-001
 1.000000e-001 1.000000e-001 1.000000e-001 1.000000e-001 1.000000e-001 1.000000e-001 1.000000e-001 1.000000e-001 1.000000e-001 1.000000e-001
 1.000000e-001 1.000000e-001 1.000000e-001 1.000000e-001 1.000000e-001 1.000000e-001 1.000000e-001 1.000000e-001 1.000000e-001 1.000000e-001
 1.000000e-001 1.000000e-001 1.000000e-001 1.000000e-001 1.000000e-001 1.000000e-001 1.000000e-001 1.000000e-001 1.000000e-001 1.000000e-001
 1.000000e-001 1.000000e-001 1.000000e-001 1.000000e-001 1.000000e-001 1.000000e-001 1.000000e-001 1.000000e-001 1.000000e-001 1.000000e-001
 1.000000e-001 1.000000e-001 1.000000e-001 1.000000e-001 1.000000e-001 1.000000e-001 1.000000e-001 1.000000e-001 1.000000e-001 1.000000e-001
 1.000000e-001 1.000000e-001 1.000000e-001 1.000000e-001 1.000000e-001 1.000000e-001 1.000000e-001 1.000000e-001 1.000000e-001 1.000000e-001
INTERNAL  1.000000e+000  (FREE)  -1  Ss Layer 2
 0.000000e+000 0.000000e+000 0.000000e+000 0.000000e+000 0.000000e+000 0.000000e+000 0.000000e+000 0.000000e+000 0.000000e+000 0.000000e+000
 0.000000e+000 0.000000e+000 0.000000e+000 0.000000e+000 0.000000e+000 0.000000e+000 0.000000e+000 0.000000e+000 0.000000e+000 0.000000e+000
 0.000000e+000 0.000000e+000 0.000000e+000 0.000000e+000 0.000000e+000 0.000000e+000 0.000000e+000 0.000000e+000 0.000000e+000 0.000000e+000
 0.000000e+000 0.000000e+000 0.000000e+000 0.000000e+000 0.000000e+000 0.000000e+000 0.000000e+000 0.000000e+000 0.000000e+000 0.000000e+000
 0.000000e+000 0.000000e+000 0.000000e+000 0.000000e+000 0.000000e+000 0.000000e+000 0.000000e+000 0.000000e+000 0.000000e+000 0.000000e+000
 0.000000e+000 0.000000e+000 0.000000e+000 0.000000e+000 0.000000e+000 0.000000e+000 0.000000e+000 0.000000e+000 0.000000e+000 0.000000e+000
 0.000000e+000 0.000000e+000 0.000000e+000 0.000000e+000 0.000000e+000 0.000000e+000 0.000000e+000 0.000000e+000 0.000000e+000 0.000000e+000
 0.000000e+000 0.000000e+000 0.000000e+000 0.000000e+000 0.000000e+000 0.000000e+000 0.000000e+000 0.000000e+000 0.000000e+000 0.000000e+000
 0.000000e+000 0.000000e+000 0.000000e+000 0.000000e+000 0.000000e+000 0.000000e+000 0.000000e+000 0.000000e+000 0.000000e+000 0.000000e+000
 0.000000e+000 0.000000e+000 0.000000e+000 0.000000e+000 0.000000e+000 0.000000e+000 0.000000e+000 0.000000e+000 0.000000e+000 0.000000e+000
 0.000000e+000 0.000000e+000 0.000000e+000 0.000000e+000 0.000000e+000 0.000000e+000 0.000000e+000 0.000000e+000 0.000000e+000 0.000000e+000
 0.000000e+000 0.000000e+000 0.000000e+000 0.000000e+000 0.000000e+000 0.000000e+000 0.000000e+000 0.000000e+000 0.000000e+000 0.000000e+000
 0.000000e+000 0.000000e+000 0.000000e+000 0.000000e+000 0.000000e+000 0.000000e+000 0.000000e+000 0.000000e+000 0.000000e+000 0.000000e+000
 0.000000e+000 0.000000e+000 0.000000e+000 0.000000e+000 0.000000e+000 0.000000e+000 0.000000e+000 0.000000e+000 0.000000e+000 0.000000e+000
 0.000000e+000 0.000000e+000 0.000000e+000 0.000000e+000 0.000000e+000 0.000000e+000 0.000000e+000 0.000000e+000 0.000000e+000 0.000000e+000
 0.000000e+000 0.000000e+000 0.000000e+000 0.000000e+000 0.000000e+000 0.000000e+000 0.000000e+000 0.000000e+000 0.000000e+000 0.000000e+000
INTERNAL  1.000000e+000  (FREE)  -1  Sy Layer 2
 0.000000e+000 0.000000e+000 0.000000e+000 0.000000e+000 0.000000e+000 0.000000e+000 0.000000e+000 0.000000e+000 0.000000e+000 0.000000e+000
 0.000000e+000 0.000000e+000 0.000000e+000 0.000000e+000 0.000000e+000 0.000000e+000 0.000000e+000 0.000000e+000 0.000000e+000 0.000000e+000
 0.000000e+000 0.000000e+000 0.000000e+000 0.000000e+000 0.000000e+000 0.000000e+000 0.000000e+000 0.000000e+000 0.000000e+000 0.000000e+000
 0.000000e+000 0.000000e+000 0.000000e+000 0.000000e+000 0.000000e+000 0.000000e+000 0.000000e+000 0.000000e+000 0.000000e+000 0.000000e+000
 0.000000e+000 0.000000e+000 0.000000e+000 0.000000e+000 0.000000e+000 0.000000e+000 0.000000e+000 0.000000e+000 0.000000e+000 0.000000e+000
 0.000000e+000 0.000000e+000 0.000000e+000 0.000000e+000 0.000000e+000 0.000000e+000 0.000000e+000 0.000000e+000 0.000000e+000 0.000000e+000
 0.000000e+000 0.000000e+000 0.000000e+000 0.000000e+000 0.000000e+000 0.000000e+000 0.000000e+000 0.000000e+000 0.000000e+000 0.000000e+000
 0.000000e+000 0.000000e+000 0.000000e+000 0.000000e+000 0.000000e+000 0.000000e+000 0.000000e+000 0.000000e+000 0.000000e+000 0.000000e+000
 0.000000e+000 0.000000e+000 0.000000e+000 0.000000e+000 0.000000e+000 0.000000e+000 0.000000e+000 0.000000e+000 0.000000e+000 0.000000e+000
 0.000000e+000 0.000000e+000 0.000000e+000 0.000000e+000 0.000000e+000 0.000000e+000 0.000000e+000 0.000000e+000 0.000000e+000 0.000000e+000
 0.000000e+000 0.000000e+000 0.000000e+000 0.000000e+000 0.000000e+000 0.000000e+000 0.000000e+000 0.000000e+000 0.000000e+000 0.000000e+000
 0.000000e+000 0.000000e+000 0.000000e+000 0.000000e+000 0.000000e+000 0.000000e+000 0.000000e+000 0.000000e+000 0.000000e+000 0.000000e+000
 0.000000e+000 0.000000e+000 0.000000e+000 0.000000e+000 0.000000e+000 0.000000e+000 0.000000e+000 0.000000e+000 0.000000e+000 0.000000e+000
 0.000000e+000 0.000000e+000 0.000000e+000 0.000000e+000 0.000000e+000 0.000000e+000 0.000000e+000 0.000000e+000 0.000000e+000 0.000000e+000
 0.000000e+000 0.000000e+000 0.000000e+000 0.000000e+000 0.000000e+000 0.000000e+000 0.000000e+000 0.000000e+000 0.000000e+000 0.000000e+000
 0.000000e+000 0.000000e+000 0.000000e+000 0.000000e+000 0.000000e+000 0.000000e+000 0.000000e+000 0.000000e+000 0.000000e+000 0.000000e+000
INTERNAL  1.000000e+000  (FREE)  -1  Kx Layer 3
 1.000000e-001 1.000000e-001 1.000000e-001 1.000000e-001 1.000000e-001 1.000000e-001 1.000000e-001 1.000000e-001 1.000000e-001 1.000000e-001
 1.000000e-001 1.000000e-001 1.000000e-001 1.000000e-001 1.000000e-001 1.000000e-001 1.000000e-001 1.000000e-001 1.000000e-001 1.000000e-001
 1.000000e-001 1.000000e-001 1.000000e-001 1.000000e-001 1.000000e-001 1.000000e-001 1.000000e-001 1.000000e-001 1.000000e-001 1.000000e-001
 1.000000e-001 1.000000e-001 1.000000e-001 1.000000e-001 1.000000e-001 1.000000e-001 1.000000e-001 1.000000e-001 1.000000e-001 1.000000e-001
 1.000000e-001 1.000000e-001 1.000000e-001 1.000000e-001 1.000000e-001 1.000000e-001 1.000000e-001 1.000000e-001 1.000000e-001 1.000000e-001
 1.000000e-001 1.000000e-001 1.000000e-001 1.000000e-001 1.000000e-001 1.000000e-001 1.000000e-001 1.000000e-001 1.000000e-001 1.000000e-001
 1.000000e-001 1.000000e-001 1.000000e-001 1.000000e-001 1.000000e-001 1.000000e-001 1.000000e-001 1.000000e-001 1.000000e-001 1.000000e-001
 1.000000e-001 1.000000e-001 1.000000e-001 1.000000e-001 1.000000e-001 1.000000e-001 1.000000e-001 1.000000e-001 1.000000e-001 1.000000e-001
 1.000000e-001 1.000000e-001 1.000000e-001 1.000000e-001 1.000000e-001 1.000000e-001 1.000000e-001 1.000000e-001 1.000000e-001 1.000000e-001
 1.000000e-001 1.000000e-001 1.000000e-001 1.000000e-001 1.000000e-001 1.000000e-001 1.000000e-001 1.000000e-001 1.000000e-001 1.000000e-001
 1.000000e-001 1.000000e-001 1.000000e-001 1.000000e-001 1.000000e-001 1.000000e-001 1.000000e-001 1.000000e-001 1.000000e-001 1.000000e-001
 1.000000e-001 1.000000e-001 1.000000e-001 1.000000e-001 1.000000e-001 1.000000e-001 1.000000e-001 1.000000e-001 1.000000e-001 1.000000e-001
 1.000000e-001 1.000000e-001 1.000000e-001 1.000000e-001 1.000000e-001 1.000000e-001 1.000000e-001 1.000000e-001 1.000000e-001 1.000000e-001
 1.000000e-001 1.000000e-001 1.000000e-001 1.000000e-001 1.000000e-001 1.000000e-001 1.000000e-001 1.000000e-001 1.000000e-001 1.000000e-001
 1.000000e-001 1.000000e-001 1.000000e-001 1.000000e-001 1.000000e-001 1.000000e-001 1.000000e-001 1.000000e-001 1.000000e-001 1.000000e-001
 1.000000e-001 1.000000e-001 1.000000e-001 1.000000e-001 1.000000e-001 1.000000e-001 1.000000e-001 1.000000e-001 1.000000e-001 1.000000e-001
INTERNAL  1.000000e+000  (FREE)  -1  Kz Layer 3
 1.000000e-001 1.000000e-001 1.000000e-001 1.000000e-001 1.000000e-001 1.000000e-001 1.000000e-001 1.000000e-001 1.000000e-001 1.000000e-001
 1.000000e-001 1.000000e-001 1.000000e-001 1.000000e-001 1.000000e-001 1.000000e-001 1.000000e-001 1.000000e-001 1.000000e-001 1.000000e-001
 1.000000e-001 1.000000e-001 1.000000e-001 1.000000e-001 1.000000e-001 1.000000e-001 1.000000e-001 1.000000e-001 1.000000e-001 1.000000e-001
 1.000000e-001 1.000000e-001 1.000000e-001 1.000000e-001 1.000000e-001 1.000000e-001 1.000000e-001 1.000000e-001 1.000000e-001 1.000000e-001
 1.000000e-001 1.000000e-001 1.000000e-001 1.000000e-001 1.000000e-001 1.000000e-001 1.000000e-001 1.000000e-001 1.000000e-001 1.000000e-001
 1.000000e-001 1.000000e-001 1.000000e-001 1.000000e-001 1.000000e-001 1.000000e-001 1.000000e-001 1.000000e-001 1.000000e-001 1.000000e-001
 1.000000e-001 1.000000e-001 1.000000e-001 1.000000e-001 1.000000e-001 1.000000e-001 1.000000e-001 1.000000e-001 1.000000e-001 1.000000e-001
 1.000000e-001 1.000000e-001 1.000000e-001 1.000000e-001 1.000000e-001 1.000000e-001 1.000000e-001 1.000000e-001 1.000000e-001 1.000000e-001
 1.000000e-001 1.000000e-001 1.000000e-001 1.000000e-001 1.000000e-001 1.000000e-001 1.000000e-001 1.000000e-001 1.000000e-001 1.000000e-001
 1.000000e-001 1.000000e-001 1.000000e-001 1.000000e-001 1.000000e-001 1.000000e-001 1.000000e-001 1.000000e-001 1.000000e-001 1.000000e-001
 1.000000e-001 1.000000e-001 1.000000e-001 1.000000e-001 1.000000e-001 1.000000e-001 1.000000e-001 1.000000e-001 1.000000e-001 1.000000e-001
 1.000000e-001 1.000000e-001 1.000000e-001 1.000000e-001 1.000000e-001 1.000000e-001 1.000000e-001 1.000000e-001 1.000000e-001 1.000000e-001
 1.000000e-001 1.000000e-001 1.000000e-001 1.000000e-001 1.000000e-001 1.000000e-001 1.000000e-001 1.000000e-001 1.000000e-001 1.000000e-001
 1.000000e-001 1.000000e-001 1.000000e-001 1.000000e-001 1.000000e-001 1.000000e-001 1.000000e-001 1.000000e-001 1.000000e-001 1.000000e-001
 1.000000e-001 1.000000e-001 1.000000e-001 1.000000e-001 1.000000e-001 1.000000e-001 1.000000e-001 1.000000e-001 1.000000e-001 1.000000e-001
 1.000000e-001 1.000000e-001 1.000000e-001 1.000000e-001 1.000000e-001 1.000000e-001 1.000000e-001 1.000000e-001 1.000000e-001 1.000000e-001
INTERNAL  1.000000e+000  (FREE)  -1  Ss Layer 3
 1.000000e-004 1.000000e-004 1.000000e-004 1.000000e-004 1.000000e-004 1.000000e-004 1.000000e-004 1.000000e-004 1.000000e-004 1.000000e-004
 1.000000e-004 1.000000e-004 1.000000e-004 1.000000e-004 1.000000e-004 1.000000e-004 1.000000e-004 1.000000e-004 1.000000e-004 1.000000e-004
 1.000000e-004 1.000000e-004 1.000000e-004 1.000000e-004 1.000000e-004 1.000000e-004 1.000000e-004 1.000000e-004 1.000000e-004 1.000000e-004
 1.000000e-004 1.000000e-004 1.000000e-004 1.000000e-004 1.000000e-004 1.000000e-004 1.000000e-004 1.000000e-004 1.000000e-004 1.000000e-004
 1.000000e-004 1.000000e-004 1.000000e-004 1.000000e-004 1.000000e-004 1.000000e-004 1.000000e-004 1.000000e-004 1.000000e-004 1.000000e-004
 1.000000e-004 1.000000e-004 1.000000e-004 1.000000e-004 1.000000e-004 1.000000e-004 1.000000e-004 1.000000e-004 1.000000e-004 1.000000e-004
 1.000000e-004 1.000000e-004 1.000000e-004 1.000000e-004 1.000000e-004 1.000000e-004 1.000000e-004 1.000000e-004 1.000000e-004 1.000000e-004
 1.000000e-004 1.000000e-004 1.000000e-004 1.000000e-004 1.000000e-004 1.000000e-004 1.000000e-004 1.000000e-004 1.000000e-004 1.000000e-004
 1.000000e-004 1.000000e-004 1.000000e-004 1.000000e-004 1.000000e-004 1.000000e-004 1.000000e-004 1.000000e-004 1.000000e-004 1.000000e-004
 1.000000e-004 1.000000e-004 1.000000e-004 1.000000e-004 1.000000e-004 1.000000e-004 1.000000e-004 1.000000e-004 1.000000e-004 1.000000e-004
 1.000000e-004 1.000000e-004 1.000000e-004 1.000000e-004 1.000000e-004 1.000000e-004 1.000000e-004 1.000000e-004 1.000000e-004 1.000000e-004
 1.000000e-004 1.000000e-004 1.000000e-004 1.000000e-004 1.000000e-004 1.000000e-004 1.000000e-004 1.000000e-004 1.000000e-004 1.000000e-004
 1.000000e-004 1.000000e-004 1.000000e-004 1.000000e-004 1.000000e-004 1.000000e-004 1.000000e-004 1.000000e-004 1.000000e-004 1.000000e-004
 1.000000e-004 1.000000e-004 1.000000e-004 1.000000e-004 1.000000e-004 1.000000e-004 1.000000e-004 1.000000e-004 1.000000e-004 1.000000e-004
 1.000000e-004 1.000000e-004 1.000000e-004 1.000000e-004 1.000000e-004 1.000000e-004 1.000000e-004 1.000000e-004 1.000000e-004 1.000000e-004
 1.000000e-004 1.000000e-004 1.000000e-004 1.000000e-004 1.000000e-004 1.000000e-004 1.000000e-004 1.000000e-004 1.000000e-004 1.000000e-004
INTERNAL  1.000000e+000  (FREE)  -1  Sy Layer 3
 1.000000e-001 1.000000e-001 1.000000e-001 1.000000e-001 1.000000e-001 1.000000e-001 1.000000e-001 1.000000e-001 1.000000e-001 1.000000e-001
 1.000000e-001 1.000000e-001 1.000000e-001 1.000000e-001 1.000000e-001 1.000000e-001 1.000000e-001 1.000000e-001 1.000000e-001 1.000000e-001
 1.000000e-001 1.000000e-001 1.000000e-001 1.000000e-001 1.000000e-001 1.000000e-001 1.000000e-001 1.000000e-001 1.000000e-001 1.000000e-001
 1.000000e-001 1.000000e-001 1.000000e-001 1.000000e-001 1.000000e-001 1.000000e-001 1.000000e-001 1.000000e-001 1.000000e-001 1.000000e-001
 1.000000e-001 1.000000e-001 1.000000e-001 1.000000e-001 1.000000e-001 1.000000e-001 1.000000e-001 1.000000e-001 1.000000e-001 1.000000e-001
 1.000000e-001 1.000000e-001 1.000000e-001 1.000000e-001 1.000000e-001 1.000000e-001 1.000000e-001 1.000000e-001 1.000000e-001 1.000000e-001
 1.000000e-001 1.000000e-001 1.000000e-001 1.000000e-001 1.000000e-001 1.000000e-001 1.000000e-001 1.000000e-001 1.000000e-001 1.000000e-001
 1.000000e-001 1.000000e-001 1.000000e-001 1.000000e-001 1.000000e-001 1.000000e-001 1.000000e-001 1.000000e-001 1.000000e-001 1.000000e-001
 1.000000e-001 1.000000e-001 1.000000e-001 1.000000e-001 1.000000e-001 1.000000e-001 1.000000e-001 1.000000e-001 1.000000e-001 1.000000e-001
 1.000000e-001 1.000000e-001 1.000000e-001 1.000000e-001 1.000000e-001 1.000000e-001 1.000000e-001 1.000000e-001 1.000000e-001 1.000000e-001
 1.000000e-001 1.000000e-001 1.000000e-001 1.000000e-001 1.000000e-001 1.000000e-001 1.000000e-001 1.000000e-001 1.000000e-001 1.000000e-001
 1.000000e-001 1.000000e-001 1.000000e-001 1.000000e-001 1.000000e-001 1.000000e-001 1.000000e-001 1.000000e-001 1.000000e-001 1.000000e-001
 1.000000e-001 1.000000e-001 1.000000e-001 1.000000e-001 1.000000e-001 1.000000e-001 1.000000e-001 1.000000e-001 1.000000e-001 1.000000e-001
 1.000000e-001 1.000000e-001 1.000000e-001 1.000000e-001 1.000000e-001 1.000000e-001 1.000000e-001 1.000000e-001 1.000000e-001 1.000000e-001
 1.000000e-001 1.000000e-001 1.000000e-001 1.000000e-001 1.000000e-001 1.000000e-001 1.000000e-001 1.000000e-001 1.000000e-001 1.000000e-001
 1.000000e-001 1.000000e-001 1.000000e-001 1.000000e-001 1.000000e-001 1.000000e-001 1.000000e-001 1.000000e-001 1.000000e-001 1.000000e-001
