# MODFLOW-USGs Drain Package
 66 50
 0 0
 3 0
 7486  0.000000  1.000000e+004  0
 7487  0.000000  1.000000e+004  0
 7488  0.000000  1.000000e+004  0
 6 0
 7486  0.000000  1.000000e+004  0
 7487  0.000000  1.000000e+004  0
 7488  0.000000  1.000000e+004  0
 7463  0.000000  1.000000e+004  0
 7464  0.000000  1.000000e+004  0
 7465  0.000000  1.000000e+004  0
 9 0
 7486  0.000000  1.000000e+004  0
 7487  0.000000  1.000000e+004  0
 7488  0.000000  1.000000e+004  0
 7463  0.000000  1.000000e+004  0
 7464  0.000000  1.000000e+004  0
 7465  0.000000  1.000000e+004  0
 7440  0.000000  1.000000e+004  0
 7441  0.000000  1.000000e+004  0
 7442  0.000000  1.000000e+004  0
 12 0
 7486  0.000000  1.000000e+004  0
 7487  0.000000  1.000000e+004  0
 7488  0.000000  1.000000e+004  0
 7463  0.000000  1.000000e+004  0
 7464  0.000000  1.000000e+004  0
 7465  0.000000  1.000000e+004  0
 7440  0.000000  1.000000e+004  0
 7441  0.000000  1.000000e+004  0
 7442  0.000000  1.000000e+004  0
 7417  0.000000  1.000000e+004  0
 7418  0.000000  1.000000e+004  0
 7419  0.000000  1.000000e+004  0
 15 0
 7486  0.000000  1.000000e+004  0
 7487  0.000000  1.000000e+004  0
 7488  0.000000  1.000000e+004  0
 7463  0.000000  1.000000e+004  0
 7464  0.000000  1.000000e+004  0
 7465  0.000000  1.000000e+004  0
 7440  0.000000  1.000000e+004  0
 7441  0.000000  1.000000e+004  0
 7442  0.000000  1.000000e+004  0
 7417  0.000000  1.000000e+004  0
 7418  0.000000  1.000000e+004  0
 7419  0.000000  1.000000e+004  0
 7394  0.000000  1.000000e+004  0
 7395  0.000000  1.000000e+004  0
 7396  0.000000  1.000000e+004  0
 18 0
 7486  0.000000  1.000000e+004  0
 7487  0.000000  1.000000e+004  0
 7488  0.000000  1.000000e+004  0
 7463  0.000000  1.000000e+004  0
 7464  0.000000  1.000000e+004  0
 7465  0.000000  1.000000e+004  0
 7440  0.000000  1.000000e+004  0
 7441  0.000000  1.000000e+004  0
 7442  0.000000  1.000000e+004  0
 7417  0.000000  1.000000e+004  0
 7418  0.000000  1.000000e+004  0
 7419  0.000000  1.000000e+004  0
 7394  0.000000  1.000000e+004  0
 7395  0.000000  1.000000e+004  0
 7396  0.000000  1.000000e+004  0
 7371  0.000000  1.000000e+004  0
 7372  0.000000  1.000000e+004  0
 7373  0.000000  1.000000e+004  0
 21 0
 7486  0.000000  1.000000e+004  0
 7487  0.000000  1.000000e+004  0
 7488  0.000000  1.000000e+004  0
 7463  0.000000  1.000000e+004  0
 7464  0.000000  1.000000e+004  0
 7465  0.000000  1.000000e+004  0
 7440  0.000000  1.000000e+004  0
 7441  0.000000  1.000000e+004  0
 7442  0.000000  1.000000e+004  0
 7417  0.000000  1.000000e+004  0
 7418  0.000000  1.000000e+004  0
 7419  0.000000  1.000000e+004  0
 7394  0.000000  1.000000e+004  0
 7395  0.000000  1.000000e+004  0
 7396  0.000000  1.000000e+004  0
 7371  0.000000  1.000000e+004  0
 7372  0.000000  1.000000e+004  0
 7373  0.000000  1.000000e+004  0
 7348  0.000000  1.000000e+004  0
 7349  0.000000  1.000000e+004  0
 7350  0.000000  1.000000e+004  0
 24 0
 7486  0.000000  1.000000e+004  0
 7487  0.000000  1.000000e+004  0
 7488  0.000000  1.000000e+004  0
 7463  0.000000  1.000000e+004  0
 7464  0.000000  1.000000e+004  0
 7465  0.000000  1.000000e+004  0
 7440  0.000000  1.000000e+004  0
 7441  0.000000  1.000000e+004  0
 7442  0.000000  1.000000e+004  0
 7417  0.000000  1.000000e+004  0
 7418  0.000000  1.000000e+004  0
 7419  0.000000  1.000000e+004  0
 7394  0.000000  1.000000e+004  0
 7395  0.000000  1.000000e+004  0
 7396  0.000000  1.000000e+004  0
 7371  0.000000  1.000000e+004  0
 7372  0.000000  1.000000e+004  0
 7373  0.000000  1.000000e+004  0
 7348  0.000000  1.000000e+004  0
 7349  0.000000  1.000000e+004  0
 7350  0.000000  1.000000e+004  0
 7325  0.000000  1.000000e+004  0
 7326  0.000000  1.000000e+004  0
 7327  0.000000  1.000000e+004  0
 27 0
 7486  0.000000  1.000000e+004  0
 7487  0.000000  1.000000e+004  0
 7488  0.000000  1.000000e+004  0
 7463  0.000000  1.000000e+004  0
 7464  0.000000  1.000000e+004  0
 7465  0.000000  1.000000e+004  0
 7440  0.000000  1.000000e+004  0
 7441  0.000000  1.000000e+004  0
 7442  0.000000  1.000000e+004  0
 7417  0.000000  1.000000e+004  0
 7418  0.000000  1.000000e+004  0
 7419  0.000000  1.000000e+004  0
 7394  0.000000  1.000000e+004  0
 7395  0.000000  1.000000e+004  0
 7396  0.000000  1.000000e+004  0
 7371  0.000000  1.000000e+004  0
 7372  0.000000  1.000000e+004  0
 7373  0.000000  1.000000e+004  0
 7348  0.000000  1.000000e+004  0
 7349  0.000000  1.000000e+004  0
 7350  0.000000  1.000000e+004  0
 7325  0.000000  1.000000e+004  0
 7326  0.000000  1.000000e+004  0
 7327  0.000000  1.000000e+004  0
 7302  0.000000  1.000000e+004  0
 7303  0.000000  1.000000e+004  0
 7304  0.000000  1.000000e+004  0
 30 0
 7486  0.000000  1.000000e+004  0
 7487  0.000000  1.000000e+004  0
 7488  0.000000  1.000000e+004  0
 7463  0.000000  1.000000e+004  0
 7464  0.000000  1.000000e+004  0
 7465  0.000000  1.000000e+004  0
 7440  0.000000  1.000000e+004  0
 7441  0.000000  1.000000e+004  0
 7442  0.000000  1.000000e+004  0
 7417  0.000000  1.000000e+004  0
 7418  0.000000  1.000000e+004  0
 7419  0.000000  1.000000e+004  0
 7394  0.000000  1.000000e+004  0
 7395  0.000000  1.000000e+004  0
 7396  0.000000  1.000000e+004  0
 7371  0.000000  1.000000e+004  0
 7372  0.000000  1.000000e+004  0
 7373  0.000000  1.000000e+004  0
 7348  0.000000  1.000000e+004  0
 7349  0.000000  1.000000e+004  0
 7350  0.000000  1.000000e+004  0
 7325  0.000000  1.000000e+004  0
 7326  0.000000  1.000000e+004  0
 7327  0.000000  1.000000e+004  0
 7302  0.000000  1.000000e+004  0
 7303  0.000000  1.000000e+004  0
 7304  0.000000  1.000000e+004  0
 7279  0.000000  1.000000e+004  0
 7280  0.000000  1.000000e+004  0
 7281  0.000000  1.000000e+004  0
 33 0
 7486  0.000000  1.000000e+004  0
 7487  0.000000  1.000000e+004  0
 7488  0.000000  1.000000e+004  0
 7463  0.000000  1.000000e+004  0
 7464  0.000000  1.000000e+004  0
 7465  0.000000  1.000000e+004  0
 7440  0.000000  1.000000e+004  0
 7441  0.000000  1.000000e+004  0
 7442  0.000000  1.000000e+004  0
 7417  0.000000  1.000000e+004  0
 7418  0.000000  1.000000e+004  0
 7419  0.000000  1.000000e+004  0
 7394  0.000000  1.000000e+004  0
 7395  0.000000  1.000000e+004  0
 7396  0.000000  1.000000e+004  0
 7371  0.000000  1.000000e+004  0
 7372  0.000000  1.000000e+004  0
 7373  0.000000  1.000000e+004  0
 7348  0.000000  1.000000e+004  0
 7349  0.000000  1.000000e+004  0
 7350  0.000000  1.000000e+004  0
 7325  0.000000  1.000000e+004  0
 7326  0.000000  1.000000e+004  0
 7327  0.000000  1.000000e+004  0
 7302  0.000000  1.000000e+004  0
 7303  0.000000  1.000000e+004  0
 7304  0.000000  1.000000e+004  0
 7279  0.000000  1.000000e+004  0
 7280  0.000000  1.000000e+004  0
 7281  0.000000  1.000000e+004  0
 7256  0.000000  1.000000e+004  0
 7257  0.000000  1.000000e+004  0
 7258  0.000000  1.000000e+004  0
 36 0
 7486  0.000000  1.000000e+004  0
 7487  0.000000  1.000000e+004  0
 7488  0.000000  1.000000e+004  0
 7463  0.000000  1.000000e+004  0
 7464  0.000000  1.000000e+004  0
 7465  0.000000  1.000000e+004  0
 7440  0.000000  1.000000e+004  0
 7441  0.000000  1.000000e+004  0
 7442  0.000000  1.000000e+004  0
 7417  0.000000  1.000000e+004  0
 7418  0.000000  1.000000e+004  0
 7419  0.000000  1.000000e+004  0
 7394  0.000000  1.000000e+004  0
 7395  0.000000  1.000000e+004  0
 7396  0.000000  1.000000e+004  0
 7371  0.000000  1.000000e+004  0
 7372  0.000000  1.000000e+004  0
 7373  0.000000  1.000000e+004  0
 7348  0.000000  1.000000e+004  0
 7349  0.000000  1.000000e+004  0
 7350  0.000000  1.000000e+004  0
 7325  0.000000  1.000000e+004  0
 7326  0.000000  1.000000e+004  0
 7327  0.000000  1.000000e+004  0
 7302  0.000000  1.000000e+004  0
 7303  0.000000  1.000000e+004  0
 7304  0.000000  1.000000e+004  0
 7279  0.000000  1.000000e+004  0
 7280  0.000000  1.000000e+004  0
 7281  0.000000  1.000000e+004  0
 7256  0.000000  1.000000e+004  0
 7257  0.000000  1.000000e+004  0
 7258  0.000000  1.000000e+004  0
 7233  0.000000  1.000000e+004  0
 7234  0.000000  1.000000e+004  0
 7235  0.000000  1.000000e+004  0
 39 0
 7486  0.000000  1.000000e+004  0
 7487  0.000000  1.000000e+004  0
 7488  0.000000  1.000000e+004  0
 7463  0.000000  1.000000e+004  0
 7464  0.000000  1.000000e+004  0
 7465  0.000000  1.000000e+004  0
 7440  0.000000  1.000000e+004  0
 7441  0.000000  1.000000e+004  0
 7442  0.000000  1.000000e+004  0
 7417  0.000000  1.000000e+004  0
 7418  0.000000  1.000000e+004  0
 7419  0.000000  1.000000e+004  0
 7394  0.000000  1.000000e+004  0
 7395  0.000000  1.000000e+004  0
 7396  0.000000  1.000000e+004  0
 7371  0.000000  1.000000e+004  0
 7372  0.000000  1.000000e+004  0
 7373  0.000000  1.000000e+004  0
 7348  0.000000  1.000000e+004  0
 7349  0.000000  1.000000e+004  0
 7350  0.000000  1.000000e+004  0
 7325  0.000000  1.000000e+004  0
 7326  0.000000  1.000000e+004  0
 7327  0.000000  1.000000e+004  0
 7302  0.000000  1.000000e+004  0
 7303  0.000000  1.000000e+004  0
 7304  0.000000  1.000000e+004  0
 7279  0.000000  1.000000e+004  0
 7280  0.000000  1.000000e+004  0
 7281  0.000000  1.000000e+004  0
 7256  0.000000  1.000000e+004  0
 7257  0.000000  1.000000e+004  0
 7258  0.000000  1.000000e+004  0
 7233  0.000000  1.000000e+004  0
 7234  0.000000  1.000000e+004  0
 7235  0.000000  1.000000e+004  0
 7210  0.000000  1.000000e+004  0
 7211  0.000000  1.000000e+004  0
 7212  0.000000  1.000000e+004  0
 42 0
 7486  0.000000  1.000000e+004  0
 7487  0.000000  1.000000e+004  0
 7488  0.000000  1.000000e+004  0
 7463  0.000000  1.000000e+004  0
 7464  0.000000  1.000000e+004  0
 7465  0.000000  1.000000e+004  0
 7440  0.000000  1.000000e+004  0
 7441  0.000000  1.000000e+004  0
 7442  0.000000  1.000000e+004  0
 7417  0.000000  1.000000e+004  0
 7418  0.000000  1.000000e+004  0
 7419  0.000000  1.000000e+004  0
 7394  0.000000  1.000000e+004  0
 7395  0.000000  1.000000e+004  0
 7396  0.000000  1.000000e+004  0
 7371  0.000000  1.000000e+004  0
 7372  0.000000  1.000000e+004  0
 7373  0.000000  1.000000e+004  0
 7348  0.000000  1.000000e+004  0
 7349  0.000000  1.000000e+004  0
 7350  0.000000  1.000000e+004  0
 7325  0.000000  1.000000e+004  0
 7326  0.000000  1.000000e+004  0
 7327  0.000000  1.000000e+004  0
 7302  0.000000  1.000000e+004  0
 7303  0.000000  1.000000e+004  0
 7304  0.000000  1.000000e+004  0
 7279  0.000000  1.000000e+004  0
 7280  0.000000  1.000000e+004  0
 7281  0.000000  1.000000e+004  0
 7256  0.000000  1.000000e+004  0
 7257  0.000000  1.000000e+004  0
 7258  0.000000  1.000000e+004  0
 7233  0.000000  1.000000e+004  0
 7234  0.000000  1.000000e+004  0
 7235  0.000000  1.000000e+004  0
 7210  0.000000  1.000000e+004  0
 7211  0.000000  1.000000e+004  0
 7212  0.000000  1.000000e+004  0
 7187  0.000000  1.000000e+004  0
 7188  0.000000  1.000000e+004  0
 7189  0.000000  1.000000e+004  0
 45 0
 7486  0.000000  1.000000e+004  0
 7487  0.000000  1.000000e+004  0
 7488  0.000000  1.000000e+004  0
 7463  0.000000  1.000000e+004  0
 7464  0.000000  1.000000e+004  0
 7465  0.000000  1.000000e+004  0
 7440  0.000000  1.000000e+004  0
 7441  0.000000  1.000000e+004  0
 7442  0.000000  1.000000e+004  0
 7417  0.000000  1.000000e+004  0
 7418  0.000000  1.000000e+004  0
 7419  0.000000  1.000000e+004  0
 7394  0.000000  1.000000e+004  0
 7395  0.000000  1.000000e+004  0
 7396  0.000000  1.000000e+004  0
 7371  0.000000  1.000000e+004  0
 7372  0.000000  1.000000e+004  0
 7373  0.000000  1.000000e+004  0
 7348  0.000000  1.000000e+004  0
 7349  0.000000  1.000000e+004  0
 7350  0.000000  1.000000e+004  0
 7325  0.000000  1.000000e+004  0
 7326  0.000000  1.000000e+004  0
 7327  0.000000  1.000000e+004  0
 7302  0.000000  1.000000e+004  0
 7303  0.000000  1.000000e+004  0
 7304  0.000000  1.000000e+004  0
 7279  0.000000  1.000000e+004  0
 7280  0.000000  1.000000e+004  0
 7281  0.000000  1.000000e+004  0
 7256  0.000000  1.000000e+004  0
 7257  0.000000  1.000000e+004  0
 7258  0.000000  1.000000e+004  0
 7233  0.000000  1.000000e+004  0
 7234  0.000000  1.000000e+004  0
 7235  0.000000  1.000000e+004  0
 7210  0.000000  1.000000e+004  0
 7211  0.000000  1.000000e+004  0
 7212  0.000000  1.000000e+004  0
 7187  0.000000  1.000000e+004  0
 7188  0.000000  1.000000e+004  0
 7189  0.000000  1.000000e+004  0
 7164  0.000000  1.000000e+004  0
 7165  0.000000  1.000000e+004  0
 7166  0.000000  1.000000e+004  0
 48 0
 7486  0.000000  1.000000e+004  0
 7487  0.000000  1.000000e+004  0
 7488  0.000000  1.000000e+004  0
 7463  0.000000  1.000000e+004  0
 7464  0.000000  1.000000e+004  0
 7465  0.000000  1.000000e+004  0
 7440  0.000000  1.000000e+004  0
 7441  0.000000  1.000000e+004  0
 7442  0.000000  1.000000e+004  0
 7417  0.000000  1.000000e+004  0
 7418  0.000000  1.000000e+004  0
 7419  0.000000  1.000000e+004  0
 7394  0.000000  1.000000e+004  0
 7395  0.000000  1.000000e+004  0
 7396  0.000000  1.000000e+004  0
 7371  0.000000  1.000000e+004  0
 7372  0.000000  1.000000e+004  0
 7373  0.000000  1.000000e+004  0
 7348  0.000000  1.000000e+004  0
 7349  0.000000  1.000000e+004  0
 7350  0.000000  1.000000e+004  0
 7325  0.000000  1.000000e+004  0
 7326  0.000000  1.000000e+004  0
 7327  0.000000  1.000000e+004  0
 7302  0.000000  1.000000e+004  0
 7303  0.000000  1.000000e+004  0
 7304  0.000000  1.000000e+004  0
 7279  0.000000  1.000000e+004  0
 7280  0.000000  1.000000e+004  0
 7281  0.000000  1.000000e+004  0
 7256  0.000000  1.000000e+004  0
 7257  0.000000  1.000000e+004  0
 7258  0.000000  1.000000e+004  0
 7233  0.000000  1.000000e+004  0
 7234  0.000000  1.000000e+004  0
 7235  0.000000  1.000000e+004  0
 7210  0.000000  1.000000e+004  0
 7211  0.000000  1.000000e+004  0
 7212  0.000000  1.000000e+004  0
 7187  0.000000  1.000000e+004  0
 7188  0.000000  1.000000e+004  0
 7189  0.000000  1.000000e+004  0
 7164  0.000000  1.000000e+004  0
 7165  0.000000  1.000000e+004  0
 7166  0.000000  1.000000e+004  0
 7141  0.000000  1.000000e+004  0
 7142  0.000000  1.000000e+004  0
 7143  0.000000  1.000000e+004  0
 51 0
 7486  0.000000  1.000000e+004  0
 7487  0.000000  1.000000e+004  0
 7488  0.000000  1.000000e+004  0
 7463  0.000000  1.000000e+004  0
 7464  0.000000  1.000000e+004  0
 7465  0.000000  1.000000e+004  0
 7440  0.000000  1.000000e+004  0
 7441  0.000000  1.000000e+004  0
 7442  0.000000  1.000000e+004  0
 7417  0.000000  1.000000e+004  0
 7418  0.000000  1.000000e+004  0
 7419  0.000000  1.000000e+004  0
 7394  0.000000  1.000000e+004  0
 7395  0.000000  1.000000e+004  0
 7396  0.000000  1.000000e+004  0
 7371  0.000000  1.000000e+004  0
 7372  0.000000  1.000000e+004  0
 7373  0.000000  1.000000e+004  0
 7348  0.000000  1.000000e+004  0
 7349  0.000000  1.000000e+004  0
 7350  0.000000  1.000000e+004  0
 7325  0.000000  1.000000e+004  0
 7326  0.000000  1.000000e+004  0
 7327  0.000000  1.000000e+004  0
 7302  0.000000  1.000000e+004  0
 7303  0.000000  1.000000e+004  0
 7304  0.000000  1.000000e+004  0
 7279  0.000000  1.000000e+004  0
 7280  0.000000  1.000000e+004  0
 7281  0.000000  1.000000e+004  0
 7256  0.000000  1.000000e+004  0
 7257  0.000000  1.000000e+004  0
 7258  0.000000  1.000000e+004  0
 7233  0.000000  1.000000e+004  0
 7234  0.000000  1.000000e+004  0
 7235  0.000000  1.000000e+004  0
 7210  0.000000  1.000000e+004  0
 7211  0.000000  1.000000e+004  0
 7212  0.000000  1.000000e+004  0
 7187  0.000000  1.000000e+004  0
 7188  0.000000  1.000000e+004  0
 7189  0.000000  1.000000e+004  0
 7164  0.000000  1.000000e+004  0
 7165  0.000000  1.000000e+004  0
 7166  0.000000  1.000000e+004  0
 7141  0.000000  1.000000e+004  0
 7142  0.000000  1.000000e+004  0
 7143  0.000000  1.000000e+004  0
 7118  0.000000  1.000000e+004  0
 7119  0.000000  1.000000e+004  0
 7120  0.000000  1.000000e+004  0
 54 0
 7486  0.000000  1.000000e+004  0
 7487  0.000000  1.000000e+004  0
 7488  0.000000  1.000000e+004  0
 7463  0.000000  1.000000e+004  0
 7464  0.000000  1.000000e+004  0
 7465  0.000000  1.000000e+004  0
 7440  0.000000  1.000000e+004  0
 7441  0.000000  1.000000e+004  0
 7442  0.000000  1.000000e+004  0
 7417  0.000000  1.000000e+004  0
 7418  0.000000  1.000000e+004  0
 7419  0.000000  1.000000e+004  0
 7394  0.000000  1.000000e+004  0
 7395  0.000000  1.000000e+004  0
 7396  0.000000  1.000000e+004  0
 7371  0.000000  1.000000e+004  0
 7372  0.000000  1.000000e+004  0
 7373  0.000000  1.000000e+004  0
 7348  0.000000  1.000000e+004  0
 7349  0.000000  1.000000e+004  0
 7350  0.000000  1.000000e+004  0
 7325  0.000000  1.000000e+004  0
 7326  0.000000  1.000000e+004  0
 7327  0.000000  1.000000e+004  0
 7302  0.000000  1.000000e+004  0
 7303  0.000000  1.000000e+004  0
 7304  0.000000  1.000000e+004  0
 7279  0.000000  1.000000e+004  0
 7280  0.000000  1.000000e+004  0
 7281  0.000000  1.000000e+004  0
 7256  0.000000  1.000000e+004  0
 7257  0.000000  1.000000e+004  0
 7258  0.000000  1.000000e+004  0
 7233  0.000000  1.000000e+004  0
 7234  0.000000  1.000000e+004  0
 7235  0.000000  1.000000e+004  0
 7210  0.000000  1.000000e+004  0
 7211  0.000000  1.000000e+004  0
 7212  0.000000  1.000000e+004  0
 7187  0.000000  1.000000e+004  0
 7188  0.000000  1.000000e+004  0
 7189  0.000000  1.000000e+004  0
 7164  0.000000  1.000000e+004  0
 7165  0.000000  1.000000e+004  0
 7166  0.000000  1.000000e+004  0
 7141  0.000000  1.000000e+004  0
 7142  0.000000  1.000000e+004  0
 7143  0.000000  1.000000e+004  0
 7118  0.000000  1.000000e+004  0
 7119  0.000000  1.000000e+004  0
 7120  0.000000  1.000000e+004  0
 7095  0.000000  1.000000e+004  0
 7096  0.000000  1.000000e+004  0
 7097  0.000000  1.000000e+004  0
 57 0
 7486  0.000000  1.000000e+004  0
 7487  0.000000  1.000000e+004  0
 7488  0.000000  1.000000e+004  0
 7463  0.000000  1.000000e+004  0
 7464  0.000000  1.000000e+004  0
 7465  0.000000  1.000000e+004  0
 7440  0.000000  1.000000e+004  0
 7441  0.000000  1.000000e+004  0
 7442  0.000000  1.000000e+004  0
 7417  0.000000  1.000000e+004  0
 7418  0.000000  1.000000e+004  0
 7419  0.000000  1.000000e+004  0
 7394  0.000000  1.000000e+004  0
 7395  0.000000  1.000000e+004  0
 7396  0.000000  1.000000e+004  0
 7371  0.000000  1.000000e+004  0
 7372  0.000000  1.000000e+004  0
 7373  0.000000  1.000000e+004  0
 7348  0.000000  1.000000e+004  0
 7349  0.000000  1.000000e+004  0
 7350  0.000000  1.000000e+004  0
 7325  0.000000  1.000000e+004  0
 7326  0.000000  1.000000e+004  0
 7327  0.000000  1.000000e+004  0
 7302  0.000000  1.000000e+004  0
 7303  0.000000  1.000000e+004  0
 7304  0.000000  1.000000e+004  0
 7279  0.000000  1.000000e+004  0
 7280  0.000000  1.000000e+004  0
 7281  0.000000  1.000000e+004  0
 7256  0.000000  1.000000e+004  0
 7257  0.000000  1.000000e+004  0
 7258  0.000000  1.000000e+004  0
 7233  0.000000  1.000000e+004  0
 7234  0.000000  1.000000e+004  0
 7235  0.000000  1.000000e+004  0
 7210  0.000000  1.000000e+004  0
 7211  0.000000  1.000000e+004  0
 7212  0.000000  1.000000e+004  0
 7187  0.000000  1.000000e+004  0
 7188  0.000000  1.000000e+004  0
 7189  0.000000  1.000000e+004  0
 7164  0.000000  1.000000e+004  0
 7165  0.000000  1.000000e+004  0
 7166  0.000000  1.000000e+004  0
 7141  0.000000  1.000000e+004  0
 7142  0.000000  1.000000e+004  0
 7143  0.000000  1.000000e+004  0
 7118  0.000000  1.000000e+004  0
 7119  0.000000  1.000000e+004  0
 7120  0.000000  1.000000e+004  0
 7095  0.000000  1.000000e+004  0
 7096  0.000000  1.000000e+004  0
 7097  0.000000  1.000000e+004  0
 7072  0.000000  1.000000e+004  0
 7073  0.000000  1.000000e+004  0
 7074  0.000000  1.000000e+004  0
 60 0
 7486  0.000000  1.000000e+004  0
 7487  0.000000  1.000000e+004  0
 7488  0.000000  1.000000e+004  0
 7463  0.000000  1.000000e+004  0
 7464  0.000000  1.000000e+004  0
 7465  0.000000  1.000000e+004  0
 7440  0.000000  1.000000e+004  0
 7441  0.000000  1.000000e+004  0
 7442  0.000000  1.000000e+004  0
 7417  0.000000  1.000000e+004  0
 7418  0.000000  1.000000e+004  0
 7419  0.000000  1.000000e+004  0
 7394  0.000000  1.000000e+004  0
 7395  0.000000  1.000000e+004  0
 7396  0.000000  1.000000e+004  0
 7371  0.000000  1.000000e+004  0
 7372  0.000000  1.000000e+004  0
 7373  0.000000  1.000000e+004  0
 7348  0.000000  1.000000e+004  0
 7349  0.000000  1.000000e+004  0
 7350  0.000000  1.000000e+004  0
 7325  0.000000  1.000000e+004  0
 7326  0.000000  1.000000e+004  0
 7327  0.000000  1.000000e+004  0
 7302  0.000000  1.000000e+004  0
 7303  0.000000  1.000000e+004  0
 7304  0.000000  1.000000e+004  0
 7279  0.000000  1.000000e+004  0
 7280  0.000000  1.000000e+004  0
 7281  0.000000  1.000000e+004  0
 7256  0.000000  1.000000e+004  0
 7257  0.000000  1.000000e+004  0
 7258  0.000000  1.000000e+004  0
 7233  0.000000  1.000000e+004  0
 7234  0.000000  1.000000e+004  0
 7235  0.000000  1.000000e+004  0
 7210  0.000000  1.000000e+004  0
 7211  0.000000  1.000000e+004  0
 7212  0.000000  1.000000e+004  0
 7187  0.000000  1.000000e+004  0
 7188  0.000000  1.000000e+004  0
 7189  0.000000  1.000000e+004  0
 7164  0.000000  1.000000e+004  0
 7165  0.000000  1.000000e+004  0
 7166  0.000000  1.000000e+004  0
 7141  0.000000  1.000000e+004  0
 7142  0.000000  1.000000e+004  0
 7143  0.000000  1.000000e+004  0
 7118  0.000000  1.000000e+004  0
 7119  0.000000  1.000000e+004  0
 7120  0.000000  1.000000e+004  0
 7095  0.000000  1.000000e+004  0
 7096  0.000000  1.000000e+004  0
 7097  0.000000  1.000000e+004  0
 7072  0.000000  1.000000e+004  0
 7073  0.000000  1.000000e+004  0
 7074  0.000000  1.000000e+004  0
 7049  0.000000  1.000000e+004  0
 7050  0.000000  1.000000e+004  0
 7051  0.000000  1.000000e+004  0
 63 0
 7486  0.000000  1.000000e+004  0
 7487  0.000000  1.000000e+004  0
 7488  0.000000  1.000000e+004  0
 7463  0.000000  1.000000e+004  0
 7464  0.000000  1.000000e+004  0
 7465  0.000000  1.000000e+004  0
 7440  0.000000  1.000000e+004  0
 7441  0.000000  1.000000e+004  0
 7442  0.000000  1.000000e+004  0
 7417  0.000000  1.000000e+004  0
 7418  0.000000  1.000000e+004  0
 7419  0.000000  1.000000e+004  0
 7394  0.000000  1.000000e+004  0
 7395  0.000000  1.000000e+004  0
 7396  0.000000  1.000000e+004  0
 7371  0.000000  1.000000e+004  0
 7372  0.000000  1.000000e+004  0
 7373  0.000000  1.000000e+004  0
 7348  0.000000  1.000000e+004  0
 7349  0.000000  1.000000e+004  0
 7350  0.000000  1.000000e+004  0
 7325  0.000000  1.000000e+004  0
 7326  0.000000  1.000000e+004  0
 7327  0.000000  1.000000e+004  0
 7302  0.000000  1.000000e+004  0
 7303  0.000000  1.000000e+004  0
 7304  0.000000  1.000000e+004  0
 7279  0.000000  1.000000e+004  0
 7280  0.000000  1.000000e+004  0
 7281  0.000000  1.000000e+004  0
 7256  0.000000  1.000000e+004  0
 7257  0.000000  1.000000e+004  0
 7258  0.000000  1.000000e+004  0
 7233  0.000000  1.000000e+004  0
 7234  0.000000  1.000000e+004  0
 7235  0.000000  1.000000e+004  0
 7210  0.000000  1.000000e+004  0
 7211  0.000000  1.000000e+004  0
 7212  0.000000  1.000000e+004  0
 7187  0.000000  1.000000e+004  0
 7188  0.000000  1.000000e+004  0
 7189  0.000000  1.000000e+004  0
 7164  0.000000  1.000000e+004  0
 7165  0.000000  1.000000e+004  0
 7166  0.000000  1.000000e+004  0
 7141  0.000000  1.000000e+004  0
 7142  0.000000  1.000000e+004  0
 7143  0.000000  1.000000e+004  0
 7118  0.000000  1.000000e+004  0
 7119  0.000000  1.000000e+004  0
 7120  0.000000  1.000000e+004  0
 7095  0.000000  1.000000e+004  0
 7096  0.000000  1.000000e+004  0
 7097  0.000000  1.000000e+004  0
 7072  0.000000  1.000000e+004  0
 7073  0.000000  1.000000e+004  0
 7074  0.000000  1.000000e+004  0
 7049  0.000000  1.000000e+004  0
 7050  0.000000  1.000000e+004  0
 7051  0.000000  1.000000e+004  0
 7026  0.000000  1.000000e+004  0
 7027  0.000000  1.000000e+004  0
 7028  0.000000  1.000000e+004  0
 66 0
 7486  0.000000  1.000000e+004  0
 7487  0.000000  1.000000e+004  0
 7488  0.000000  1.000000e+004  0
 7463  0.000000  1.000000e+004  0
 7464  0.000000  1.000000e+004  0
 7465  0.000000  1.000000e+004  0
 7440  0.000000  1.000000e+004  0
 7441  0.000000  1.000000e+004  0
 7442  0.000000  1.000000e+004  0
 7417  0.000000  1.000000e+004  0
 7418  0.000000  1.000000e+004  0
 7419  0.000000  1.000000e+004  0
 7394  0.000000  1.000000e+004  0
 7395  0.000000  1.000000e+004  0
 7396  0.000000  1.000000e+004  0
 7371  0.000000  1.000000e+004  0
 7372  0.000000  1.000000e+004  0
 7373  0.000000  1.000000e+004  0
 7348  0.000000  1.000000e+004  0
 7349  0.000000  1.000000e+004  0
 7350  0.000000  1.000000e+004  0
 7325  0.000000  1.000000e+004  0
 7326  0.000000  1.000000e+004  0
 7327  0.000000  1.000000e+004  0
 7302  0.000000  1.000000e+004  0
 7303  0.000000  1.000000e+004  0
 7304  0.000000  1.000000e+004  0
 7279  0.000000  1.000000e+004  0
 7280  0.000000  1.000000e+004  0
 7281  0.000000  1.000000e+004  0
 7256  0.000000  1.000000e+004  0
 7257  0.000000  1.000000e+004  0
 7258  0.000000  1.000000e+004  0
 7233  0.000000  1.000000e+004  0
 7234  0.000000  1.000000e+004  0
 7235  0.000000  1.000000e+004  0
 7210  0.000000  1.000000e+004  0
 7211  0.000000  1.000000e+004  0
 7212  0.000000  1.000000e+004  0
 7187  0.000000  1.000000e+004  0
 7188  0.000000  1.000000e+004  0
 7189  0.000000  1.000000e+004  0
 7164  0.000000  1.000000e+004  0
 7165  0.000000  1.000000e+004  0
 7166  0.000000  1.000000e+004  0
 7141  0.000000  1.000000e+004  0
 7142  0.000000  1.000000e+004  0
 7143  0.000000  1.000000e+004  0
 7118  0.000000  1.000000e+004  0
 7119  0.000000  1.000000e+004  0
 7120  0.000000  1.000000e+004  0
 7095  0.000000  1.000000e+004  0
 7096  0.000000  1.000000e+004  0
 7097  0.000000  1.000000e+004  0
 7072  0.000000  1.000000e+004  0
 7073  0.000000  1.000000e+004  0
 7074  0.000000  1.000000e+004  0
 7049  0.000000  1.000000e+004  0
 7050  0.000000  1.000000e+004  0
 7051  0.000000  1.000000e+004  0
 7026  0.000000  1.000000e+004  0
 7027  0.000000  1.000000e+004  0
 7028  0.000000  1.000000e+004  0
 7003  0.000000  1.000000e+004  0
 7004  0.000000  1.000000e+004  0
 7005  0.000000  1.000000e+004  0
 66 0
 7486  0.000000  1.000000e+004  0
 7487  0.000000  1.000000e+004  0
 7488  0.000000  1.000000e+004  0
 7463  0.000000  1.000000e+004  0
 7464  0.000000  1.000000e+004  0
 7465  0.000000  1.000000e+004  0
 7440  0.000000  1.000000e+004  0
 7441  0.000000  1.000000e+004  0
 7442  0.000000  1.000000e+004  0
 7417  0.000000  1.000000e+004  0
 7418  0.000000  1.000000e+004  0
 7419  0.000000  1.000000e+004  0
 7394  0.000000  1.000000e+004  0
 7395  0.000000  1.000000e+004  0
 7396  0.000000  1.000000e+004  0
 7371  0.000000  1.000000e+004  0
 7372  0.000000  1.000000e+004  0
 7373  0.000000  1.000000e+004  0
 7348  0.000000  1.000000e+004  0
 7349  0.000000  1.000000e+004  0
 7350  0.000000  1.000000e+004  0
 7325  0.000000  1.000000e+004  0
 7326  0.000000  1.000000e+004  0
 7327  0.000000  1.000000e+004  0
 7302  0.000000  1.000000e+004  0
 7303  0.000000  1.000000e+004  0
 7304  0.000000  1.000000e+004  0
 7279  0.000000  1.000000e+004  0
 7280  0.000000  1.000000e+004  0
 7281  0.000000  1.000000e+004  0
 7256  0.000000  1.000000e+004  0
 7257  0.000000  1.000000e+004  0
 7258  0.000000  1.000000e+004  0
 7233  0.000000  1.000000e+004  0
 7234  0.000000  1.000000e+004  0
 7235  0.000000  1.000000e+004  0
 7210  0.000000  1.000000e+004  0
 7211  0.000000  1.000000e+004  0
 7212  0.000000  1.000000e+004  0
 7187  0.000000  1.000000e+004  0
 7188  0.000000  1.000000e+004  0
 7189  0.000000  1.000000e+004  0
 7164  0.000000  1.000000e+004  0
 7165  0.000000  1.000000e+004  0
 7166  0.000000  1.000000e+004  0
 7141  0.000000  1.000000e+004  0
 7142  0.000000  1.000000e+004  0
 7143  0.000000  1.000000e+004  0
 7118  0.000000  1.000000e+004  0
 7119  0.000000  1.000000e+004  0
 7120  0.000000  1.000000e+004  0
 7095  0.000000  1.000000e+004  0
 7096  0.000000  1.000000e+004  0
 7097  0.000000  1.000000e+004  0
 7072  0.000000  1.000000e+004  0
 7073  0.000000  1.000000e+004  0
 7074  0.000000  1.000000e+004  0
 7049  0.000000  1.000000e+004  0
 7050  0.000000  1.000000e+004  0
 7051  0.000000  1.000000e+004  0
 7026  0.000000  1.000000e+004  0
 7027  0.000000  1.000000e+004  0
 7028  0.000000  1.000000e+004  0
 7003  0.000000  1.000000e+004  0
 7004  0.000000  1.000000e+004  0
 7005  0.000000  1.000000e+004  0
 66 0
 7486  0.000000  1.000000e+004  0
 7487  0.000000  1.000000e+004  0
 7488  0.000000  1.000000e+004  0
 7463  0.000000  1.000000e+004  0
 7464  0.000000  1.000000e+004  0
 7465  0.000000  1.000000e+004  0
 7440  0.000000  1.000000e+004  0
 7441  0.000000  1.000000e+004  0
 7442  0.000000  1.000000e+004  0
 7417  0.000000  1.000000e+004  0
 7418  0.000000  1.000000e+004  0
 7419  0.000000  1.000000e+004  0
 7394  0.000000  1.000000e+004  0
 7395  0.000000  1.000000e+004  0
 7396  0.000000  1.000000e+004  0
 7371  0.000000  1.000000e+004  0
 7372  0.000000  1.000000e+004  0
 7373  0.000000  1.000000e+004  0
 7348  0.000000  1.000000e+004  0
 7349  0.000000  1.000000e+004  0
 7350  0.000000  1.000000e+004  0
 7325  0.000000  1.000000e+004  0
 7326  0.000000  1.000000e+004  0
 7327  0.000000  1.000000e+004  0
 7302  0.000000  1.000000e+004  0
 7303  0.000000  1.000000e+004  0
 7304  0.000000  1.000000e+004  0
 7279  0.000000  1.000000e+004  0
 7280  0.000000  1.000000e+004  0
 7281  0.000000  1.000000e+004  0
 7256  0.000000  1.000000e+004  0
 7257  0.000000  1.000000e+004  0
 7258  0.000000  1.000000e+004  0
 7233  0.000000  1.000000e+004  0
 7234  0.000000  1.000000e+004  0
 7235  0.000000  1.000000e+004  0
 7210  0.000000  1.000000e+004  0
 7211  0.000000  1.000000e+004  0
 7212  0.000000  1.000000e+004  0
 7187  0.000000  1.000000e+004  0
 7188  0.000000  1.000000e+004  0
 7189  0.000000  1.000000e+004  0
 7164  0.000000  1.000000e+004  0
 7165  0.000000  1.000000e+004  0
 7166  0.000000  1.000000e+004  0
 7141  0.000000  1.000000e+004  0
 7142  0.000000  1.000000e+004  0
 7143  0.000000  1.000000e+004  0
 7118  0.000000  1.000000e+004  0
 7119  0.000000  1.000000e+004  0
 7120  0.000000  1.000000e+004  0
 7095  0.000000  1.000000e+004  0