# MODFLOW-USGs Constant-Head Boundary Package (CHD)
      1260
 1260
 1   356.000000  356.000000
 2   356.000000  356.000000
 3   356.000000  356.000000
 4   356.000000  356.000000
 5   356.000000  356.000000
 6   356.000000  356.000000
 7   356.000000  356.000000
 8   356.000000  356.000000
 9   356.000000  356.000000
 10   356.000000  356.000000
 11   356.000000  356.000000
 12   356.000000  356.000000
 13   356.000000  356.000000
 14   356.000000  356.000000
 15   356.000000  356.000000
 16   356.000000  356.000000
 17   356.000000  356.000000
 18   356.000000  356.000000
 19   356.000000  356.000000
 20   356.000000  356.000000
 21   356.000000  356.000000
 22   356.000000  356.000000
 23   356.000000  356.000000
 24   356.000000  356.000000
 46   356.000000  356.000000
 47   356.000000  356.000000
 69   356.000000  356.000000
 70   356.000000  356.000000
 92   356.000000  356.000000
 93   356.000000  356.000000
 115   356.000000  356.000000
 116   356.000000  356.000000
 138   356.000000  356.000000
 139   356.000000  356.000000
 161   356.000000  356.000000
 162   356.000000  356.000000
 184   356.000000  356.000000
 185   356.000000  356.000000
 207   356.000000  356.000000
 208   356.000000  356.000000
 230   356.000000  356.000000
 231   356.000000  356.000000
 253   356.000000  356.000000
 254   356.000000  356.000000
 276   356.000000  356.000000
 277   356.000000  356.000000
 299   356.000000  356.000000
 300   356.000000  356.000000
 322   356.000000  356.000000
 323   356.000000  356.000000
 345   356.000000  356.000000
 346   356.000000  356.000000
 368   356.000000  356.000000
 369   356.000000  356.000000
 391   356.000000  356.000000
 392   356.000000  356.000000
 414   356.000000  356.000000
 415   356.000000  356.000000
 437   356.000000  356.000000
 438   356.000000  356.000000
 460   356.000000  356.000000
 461   356.000000  356.000000
 483   356.000000  356.000000
 484   356.000000  356.000000
 506   356.000000  356.000000
 507   356.000000  356.000000
 529   356.000000  356.000000
 530   356.000000  356.000000
 552   356.000000  356.000000
 553   356.000000  356.000000
 575   356.000000  356.000000
 576   356.000000  356.000000
 598   356.000000  356.000000
 599   356.000000  356.000000
 621   356.000000  356.000000
 622   356.000000  356.000000
 644   356.000000  356.000000
 645   356.000000  356.000000
 667   356.000000  356.000000
 668   356.000000  356.000000
 690   356.000000  356.000000
 691   356.000000  356.000000
 713   356.000000  356.000000
 714   356.000000  356.000000
 736   356.000000  356.000000
 737   356.000000  356.000000
 759   356.000000  356.000000
 760   356.000000  356.000000
 782   356.000000  356.000000
 783   356.000000  356.000000
 805   356.000000  356.000000
 806   356.000000  356.000000
 828   356.000000  356.000000
 829   356.000000  356.000000
 851   356.000000  356.000000
 852   356.000000  356.000000
 874   356.000000  356.000000
 875   356.000000  356.000000
 897   356.000000  356.000000
 898   356.000000  356.000000
 920   356.000000  356.000000
 921   356.000000  356.000000
 943   356.000000  356.000000
 944   356.000000  356.000000
 945   356.000000  356.000000
 946   356.000000  356.000000
 947   356.000000  356.000000
 948   356.000000  356.000000
 949   356.000000  356.000000
 950   356.000000  356.000000
 951   356.000000  356.000000
 952   356.000000  356.000000
 953   356.000000  356.000000
 954   356.000000  356.000000
 955   356.000000  356.000000
 956   356.000000  356.000000
 957   356.000000  356.000000
 958   356.000000  356.000000
 959   356.000000  356.000000
 960   356.000000  356.000000
 961   356.000000  356.000000
 962   356.000000  356.000000
 963   356.000000  356.000000
 964   356.000000  356.000000
 965   356.000000  356.000000
 966   356.000000  356.000000
 967   356.000000  356.000000
 968   356.000000  356.000000
 969   356.000000  356.000000
 970   356.000000  356.000000
 971   356.000000  356.000000
 972   356.000000  356.000000
 973   356.000000  356.000000
 974   356.000000  356.000000
 975   356.000000  356.000000
 976   356.000000  356.000000
 977   356.000000  356.000000
 978   356.000000  356.000000
 979   356.000000  356.000000
 980   356.000000  356.000000
 981   356.000000  356.000000
 982   356.000000  356.000000
 983   356.000000  356.000000
 984   356.000000  356.000000
 985   356.000000  356.000000
 986   356.000000  356.000000
 987   356.000000  356.000000
 988   356.000000  356.000000
 989   356.000000  356.000000
 990   356.000000  356.000000
 1012   356.000000  356.000000
 1013   356.000000  356.000000
 1035   356.000000  356.000000
 1036   356.000000  356.000000
 1058   356.000000  356.000000
 1059   356.000000  356.000000
 1081   356.000000  356.000000
 1082   356.000000  356.000000
 1104   356.000000  356.000000
 1105   356.000000  356.000000
 1127   356.000000  356.000000
 1128   356.000000  356.000000
 1150   356.000000  356.000000
 1151   356.000000  356.000000
 1173   356.000000  356.000000
 1174   356.000000  356.000000
 1196   356.000000  356.000000
 1197   356.000000  356.000000
 1219   356.000000  356.000000
 1220   356.000000  356.000000
 1242   356.000000  356.000000
 1243   356.000000  356.000000
 1265   356.000000  356.000000
 1266   356.000000  356.000000
 1288   356.000000  356.000000
 1289   356.000000  356.000000
 1311   356.000000  356.000000
 1312   356.000000  356.000000
 1334   356.000000  356.000000
 1335   356.000000  356.000000
 1357   356.000000  356.000000
 1358   356.000000  356.000000
 1380   356.000000  356.000000
 1381   356.000000  356.000000
 1403   356.000000  356.000000
 1404   356.000000  356.000000
 1426   356.000000  356.000000
 1427   356.000000  356.000000
 1449   356.000000  356.000000
 1450   356.000000  356.000000
 1472   356.000000  356.000000
 1473   356.000000  356.000000
 1495   356.000000  356.000000
 1496   356.000000  356.000000
 1518   356.000000  356.000000
 1519   356.000000  356.000000
 1541   356.000000  356.000000
 1542   356.000000  356.000000
 1564   356.000000  356.000000
 1565   356.000000  356.000000
 1587   356.000000  356.000000
 1588   356.000000  356.000000
 1610   356.000000  356.000000
 1611   356.000000  356.000000
 1633   356.000000  356.000000
 1634   356.000000  356.000000
 1656   356.000000  356.000000
 1657   356.000000  356.000000
 1679   356.000000  356.000000
 1680   356.000000  356.000000
 1702   356.000000  356.000000
 1703   356.000000  356.000000
 1725   356.000000  356.000000
 1726   356.000000  356.000000
 1748   356.000000  356.000000
 1749   356.000000  356.000000
 1771   356.000000  356.000000
 1772   356.000000  356.000000
 1794   356.000000  356.000000
 1795   356.000000  356.000000
 1817   356.000000  356.000000
 1818   356.000000  356.000000
 1840   356.000000  356.000000
 1841   356.000000  356.000000
 1863   356.000000  356.000000
 1864   356.000000  356.000000
 1886   356.000000  356.000000
 1887   356.000000  356.000000
 1909   356.000000  356.000000
 1910   356.000000  356.000000
 1911   356.000000  356.000000
 1912   356.000000  356.000000
 1913   356.000000  356.000000
 1914   356.000000  356.000000
 1915   356.000000  356.000000
 1916   356.000000  356.000000
 1917   356.000000  356.000000
 1918   356.000000  356.000000
 1919   356.000000  356.000000
 1920   356.000000  356.000000
 1921   356.000000  356.000000
 1922   356.000000  356.000000
 1923   356.000000  356.000000
 1924   356.000000  356.000000
 1925   356.000000  356.000000
 1926   356.000000  356.000000
 1927   356.000000  356.000000
 1928   356.000000  356.000000
 1929   356.000000  356.000000
 1930   356.000000  356.000000
 1931   356.000000  356.000000
 1932   356.000000  356.000000
 1933   356.000000  356.000000
 1934   356.000000  356.000000
 1935   356.000000  356.000000
 1936   356.000000  356.000000
 1937   356.000000  356.000000
 1938   356.000000  356.000000
 1939   356.000000  356.000000
 1940   356.000000  356.000000
 1941   356.000000  356.000000
 1942   356.000000  356.000000
 1943   356.000000  356.000000
 1944   356.000000  356.000000
 1945   356.000000  356.000000
 1946   356.000000  356.000000
 1947   356.000000  356.000000
 1948   356.000000  356.000000
 1949   356.000000  356.000000
 1950   356.000000  356.000000
 1951   356.000000  356.000000
 1952   356.000000  356.000000
 1953   356.000000  356.000000
 1954   356.000000  356.000000
 1955   356.000000  356.000000
 1956   356.000000  356.000000
 1978   356.000000  356.000000
 1979   356.000000  356.000000
 2001   356.000000  356.000000
 2002   356.000000  356.000000
 2024   356.000000  356.000000
 2025   356.000000  356.000000
 2047   356.000000  356.000000
 2048   356.000000  356.000000
 2070   356.000000  356.000000
 2071   356.000000  356.000000
 2093   356.000000  356.000000
 2094   356.000000  356.000000
 2116   356.000000  356.000000
 2117   356.000000  356.000000
 2139   356.000000  356.000000
 2140   356.000000  356.000000
 2162   356.000000  356.000000
 2163   356.000000  356.000000
 2185   356.000000  356.000000
 2186   356.000000  356.000000
 2208   356.000000  356.000000
 2209   356.000000  356.000000
 2231   356.000000  356.000000
 2232   356.000000  356.000000
 2254   356.000000  356.000000
 2255   356.000000  356.000000
 2277   356.000000  356.000000
 2278   356.000000  356.000000
 2300   356.000000  356.000000
 2301   356.000000  356.000000
 2323   356.000000  356.000000
 2324   356.000000  356.000000
 2346   356.000000  356.000000
 2347   356.000000  356.000000
 2369   356.000000  356.000000
 2370   356.000000  356.000000
 2392   356.000000  356.000000
 2393   356.000000  356.000000
 2415   356.000000  356.000000
 2416   356.000000  356.000000
 2438   356.000000  356.000000
 2439   356.000000  356.000000
 2461   356.000000  356.000000
 2462   356.000000  356.000000
 2484   356.000000  356.000000
 2485   356.000000  356.000000
 2507   356.000000  356.000000
 2508   356.000000  356.000000
 2530   356.000000  356.000000
 2531   356.000000  356.000000
 2553   356.000000  356.000000
 2554   356.000000  356.000000
 2576   356.000000  356.000000
 2577   356.000000  356.000000
 2599   356.000000  356.000000
 2600   356.000000  356.000000
 2622   356.000000  356.000000
 2623   356.000000  356.000000
 2645   356.000000  356.000000
 2646   356.000000  356.000000
 2668   356.000000  356.000000
 2669   356.000000  356.000000
 2691   356.000000  356.000000
 2692   356.000000  356.000000
 2714   356.000000  356.000000
 2715   356.000000  356.000000
 2737   356.000000  356.000000
 2738   356.000000  356.000000
 2760   356.000000  356.000000
 2761   356.000000  356.000000
 2783   356.000000  356.000000
 2784   356.000000  356.000000
 2806   356.000000  356.000000
 2807   356.000000  356.000000
 2829   356.000000  356.000000
 2830   356.000000  356.000000
 2852   356.000000  356.000000
 2853   356.000000  356.000000
 2875   356.000000  356.000000
 2876   356.000000  356.000000
 2877   356.000000  356.000000
 2878   356.000000  356.000000
 2879   356.000000  356.000000
 2880   356.000000  356.000000
 2881   356.000000  356.000000
 2882   356.000000  356.000000
 2883   356.000000  356.000000
 2884   356.000000  356.000000
 2885   356.000000  356.000000
 2886   356.000000  356.000000
 2887   356.000000  356.000000
 2888   356.000000  356.000000
 2889   356.000000  356.000000
 2890   356.000000  356.000000
 2891   356.000000  356.000000
 2892   356.000000  356.000000
 2893   356.000000  356.000000
 2894   356.000000  356.000000
 2895   356.000000  356.000000
 2896   356.000000  356.000000
 2897   356.000000  356.000000
 2898   356.000000  356.000000
 2899   356.000000  356.000000
 2900   356.000000  356.000000
 2901   356.000000  356.000000
 2902   356.000000  356.000000
 2903   356.000000  356.000000
 2904   356.000000  356.000000
 2905   356.000000  356.000000
 2906   356.000000  356.000000
 2907   356.000000  356.000000
 2908   356.000000  356.000000
 2909   356.000000  356.000000
 2910   356.000000  356.000000
 2911   356.000000  356.000000
 2912   356.000000  356.000000
 2913   356.000000  356.000000
 2914   356.000000  356.000000
 2915   356.000000  356.000000
 2916   356.000000  356.000000
 2917   356.000000  356.000000
 2918   356.000000  356.000000
 2919   356.000000  356.000000
 2920   356.000000  356.000000
 2921   356.000000  356.000000
 2922   356.000000  356.000000
 2944   356.000000  356.000000
 2945   356.000000  356.000000
 2967   356.000000  356.000000
 2968   356.000000  356.000000
 2990   356.000000  356.000000
 2991   356.000000  356.000000
 3013   356.000000  356.000000
 3014   356.000000  356.000000
 3036   356.000000  356.000000
 3037   356.000000  356.000000
 3059   356.000000  356.000000
 3060   356.000000  356.000000
 3082   356.000000  356.000000
 3083   356.000000  356.000000
 3105   356.000000  356.000000
 3106   356.000000  356.000000
 3128   356.000000  356.000000
 3129   356.000000  356.000000
 3151   356.000000  356.000000
 3152   356.000000  356.000000
 3174   356.000000  356.000000
 3175   356.000000  356.000000
 3197   356.000000  356.000000
 3198   356.000000  356.000000
 3220   356.000000  356.000000
 3221   356.000000  356.000000
 3243   356.000000  356.000000
 3244   356.000000  356.000000
 3266   356.000000  356.000000
 3267   356.000000  356.000000
 3289   356.000000  356.000000
 3290   356.000000  356.000000
 3312   356.000000  356.000000
 3313   356.000000  356.000000
 3335   356.000000  356.000000
 3336   356.000000  356.000000
 3358   356.000000  356.000000
 3359   356.000000  356.000000
 3381   356.000000  356.000000
 3382   356.000000  356.000000
 3404   356.000000  356.000000
 3405   356.000000  356.000000
 3427   356.000000  356.000000
 3428   356.000000  356.000000
 3450   356.000000  356.000000
 3451   356.000000  356.000000
 3473   356.000000  356.000000
 3474   356.000000  356.000000
 3496   356.000000  356.000000
 3497   356.000000  356.000000
 3519   356.000000  356.000000
 3520   356.000000  356.000000
 3542   356.000000  356.000000
 3543   356.000000  356.000000
 3565   356.000000  356.000000
 3566   356.000000  356.000000
 3588   356.000000  356.000000
 3589   356.000000  356.000000
 3611   356.000000  356.000000
 3612   356.000000  356.000000
 3634   356.000000  356.000000
 3635   356.000000  356.000000
 3657   356.000000  356.000000
 3658   356.000000  356.000000
 3680   356.000000  356.000000
 3681   356.000000  356.000000
 3703   356.000000  356.000000
 3704   356.000000  356.000000
 3726   356.000000  356.000000
 3727   356.000000  356.000000
 3749   356.000000  356.000000
 3750   356.000000  356.000000
 3772   356.000000  356.000000
 3773   356.000000  356.000000
 3795   356.000000  356.000000
 3796   356.000000  356.000000
 3818   356.000000  356.000000
 3819   356.000000  356.000000
 3841   356.000000  356.000000
 3842   356.000000  356.000000
 3843   356.000000  356.000000
 3844   356.000000  356.000000
 3845   356.000000  356.000000
 3846   356.000000  356.000000
 3847   356.000000  356.000000
 3848   356.000000  356.000000
 3849   356.000000  356.000000
 3850   356.000000  356.000000
 3851   356.000000  356.000000
 3852   356.000000  356.000000
 3853   356.000000  356.000000
 3854   356.000000  356.000000
 3855   356.000000  356.000000
 3856   356.000000  356.000000
 3857   356.000000  356.000000
 3858   356.000000  356.000000
 3859   356.000000  356.000000
 3860   356.000000  356.000000
 3861   356.000000  356.000000
 3862   356.000000  356.000000
 3863   356.000000  356.000000
 3864   356.000000  356.000000
 3865   356.000000  356.000000
 3866   356.000000  356.000000
 3867   356.000000  356.000000
 3868   356.000000  356.000000
 3869   356.000000  356.000000
 3870   356.000000  356.000000
 3871   356.000000  356.000000
 3872   356.000000  356.000000
 3873   356.000000  356.000000
 3874   356.000000  356.000000
 3875   356.000000  356.000000
 3876   356.000000  356.000000
 3877   356.000000  356.000000
 3878   356.000000  356.000000
 3879   356.000000  356.000000
 3880   356.000000  356.000000
 3881   356.000000  356.000000
 3882   356.000000  356.000000
 3883   356.000000  356.000000
 3884   356.000000  356.000000
 3885   356.000000  356.000000
 3886   356.000000  356.000000
 3887   356.000000  356.000000
 3888   356.000000  356.000000
 3910   356.000000  356.000000
 3911   356.000000  356.000000
 3933   356.000000  356.000000
 3934   356.000000  356.000000
 3956   356.000000  356.000000
 3957   356.000000  356.000000
 3979   356.000000  356.000000
 3980   356.000000  356.000000
 4002   356.000000  356.000000
 4003   356.000000  356.000000
 4025   356.000000  356.000000
 4026   356.000000  356.000000
 4048   356.000000  356.000000
 4049   356.000000  356.000000
 4071   356.000000  356.000000
 4072   356.000000  356.000000
 4094   356.000000  356.000000
 4095   356.000000  356.000000
 4117   356.000000  356.000000
 4118   356.000000  356.000000
 4140   356.000000  356.000000
 4141   356.000000  356.000000
 4163   356.000000  356.000000
 4164   356.000000  356.000000
 4186   356.000000  356.000000
 4187   356.000000  356.000000
 4209   356.000000  356.000000
 4210   356.000000  356.000000
 4232   356.000000  356.000000
 4233   356.000000  356.000000
 4255   356.000000  356.000000
 4256   356.000000  356.000000
 4278   356.000000  356.000000
 4279   356.000000  356.000000
 4301   356.000000  356.000000
 4302   356.000000  356.000000
 4324   356.000000  356.000000
 4325   356.000000  356.000000
 4347   356.000000  356.000000
 4348   356.000000  356.000000
 4370   356.000000  356.000000
 4371   356.000000  356.000000
 4393   356.000000  356.000000
 4394   356.000000  356.000000
 4416   356.000000  356.000000
 4417   356.000000  356.000000
 4439   356.000000  356.000000
 4440   356.000000  356.000000
 4462   356.000000  356.000000
 4463   356.000000  356.000000
 4485   356.000000  356.000000
 4486   356.000000  356.000000
 4508   356.000000  356.000000
 4509   356.000000  356.000000
 4531   356.000000  356.000000
 4532   356.000000  356.000000
 4554   356.000000  356.000000
 4555   356.000000  356.000000
 4577   356.000000  356.000000
 4578   356.000000  356.000000
 4600   356.000000  356.000000
 4601   356.000000  356.000000
 4623   356.000000  356.000000
 4624   356.000000  356.000000
 4646   356.000000  356.000000
 4647   356.000000  356.000000
 4669   356.000000  356.000000
 4670   356.000000  356.000000
 4692   356.000000  356.000000
 4693   356.000000  356.000000
 4715   356.000000  356.000000
 4716   356.000000  356.000000
 4738   356.000000  356.000000
 4739   356.000000  356.000000
 4761   356.000000  356.000000
 4762   356.000000  356.000000
 4784   356.000000  356.000000
 4785   356.000000  356.000000
 4807   356.000000  356.000000
 4808   356.000000  356.000000
 4809   356.000000  356.000000
 4810   356.000000  356.000000
 4811   356.000000  356.000000
 4812   356.000000  356.000000
 4813   356.000000  356.000000
 4814   356.000000  356.000000
 4815   356.000000  356.000000
 4816   356.000000  356.000000
 4817   356.000000  356.000000
 4818   356.000000  356.000000
 4819   356.000000  356.000000
 4820   356.000000  356.000000
 4821   356.000000  356.000000
 4822   356.000000  356.000000
 4823   356.000000  356.000000
 4824   356.000000  356.000000
 4825   356.000000  356.000000
 4826   356.000000  356.000000
 4827   356.000000  356.000000
 4828   356.000000  356.000000
 4829   356.000000  356.000000
 4830   356.000000  356.000000
 4831   356.000000  356.000000
 4832   356.000000  356.000000
 4833   356.000000  356.000000
 4834   356.000000  356.000000
 4835   356.000000  356.000000
 4836   356.000000  356.000000
 4837   356.000000  356.000000
 4838   356.000000  356.000000
 4839   356.000000  356.000000
 4840   356.000000  356.000000
 4841   356.000000  356.000000
 4842   356.000000  356.000000
 4843   356.000000  356.000000
 4844   356.000000  356.000000
 4845   356.000000  356.000000
 4846   356.000000  356.000000
 4847   356.000000  356.000000
 4848   356.000000  356.000000
 4849   356.000000  356.000000
 4850   356.000000  356.000000
 4851   356.000000  356.000000
 4852   356.000000  356.000000
 4853   356.000000  356.000000
 4854   356.000000  356.000000
 4876   356.000000  356.000000
 4877   356.000000  356.000000
 4899   356.000000  356.000000
 4900   356.000000  356.000000
 4922   356.000000  356.000000
 4923   356.000000  356.000000
 4945   356.000000  356.000000
 4946   356.000000  356.000000
 4968   356.000000  356.000000
 4969   356.000000  356.000000
 4991   356.000000  356.000000
 4992   356.000000  356.000000
 5014   356.000000  356.000000
 5015   356.000000  356.000000
 5037   356.000000  356.000000
 5038   356.000000  356.000000
 5060   356.000000  356.000000
 5061   356.000000  356.000000
 5083   356.000000  356.000000
 5084   356.000000  356.000000
 5106   356.000000  356.000000
 5107   356.000000  356.000000
 5129   356.000000  356.000000
 5130   356.000000  356.000000
 5152   356.000000  356.000000
 5153   356.000000  356.000000
 5175   356.000000  356.000000
 5176   356.000000  356.000000
 5198   356.000000  356.000000
 5199   356.000000  356.000000
 5221   356.000000  356.000000
 5222   356.000000  356.000000
 5244   356.000000  356.000000
 5245   356.000000  356.000000
 5267   356.000000  356.000000
 5268   356.000000  356.000000
 5290   356.000000  356.000000
 5291   356.000000  356.000000
 5313   356.000000  356.000000
 5314   356.000000  356.000000
 5336   356.000000  356.000000
 5337   356.000000  356.000000
 5359   356.000000  356.000000
 5360   356.000000  356.000000
 5382   356.000000  356.000000
 5383   356.000000  356.000000
 5405   356.000000  356.000000
 5406   356.000000  356.000000
 5428   356.000000  356.000000
 5429   356.000000  356.000000
 5451   356.000000  356.000000
 5452   356.000000  356.000000
 5474   356.000000  356.000000
 5475   356.000000  356.000000
 5497   356.000000  356.000000
 5498   356.000000  356.000000
 5520   356.000000  356.000000
 5521   356.000000  356.000000
 5543   356.000000  356.000000
 5544   356.000000  356.000000
 5566   356.000000  356.000000
 5567   356.000000  356.000000
 5589   356.000000  356.000000
 5590   356.000000  356.000000
 5612   356.000000  356.000000
 5613   356.000000  356.000000
 5635   356.000000  356.000000
 5636   356.000000  356.000000
 5658   356.000000  356.000000
 5659   356.000000  356.000000
 5681   356.000000  356.000000
 5682   356.000000  356.000000
 5704   356.000000  356.000000
 5705   356.000000  356.000000
 5727   356.000000  356.000000
 5728   356.000000  356.000000
 5750   356.000000  356.000000
 5751   356.000000  356.000000
 5773   356.000000  356.000000
 5774   356.000000  356.000000
 5775   356.000000  356.000000
 5776   356.000000  356.000000
 5777   356.000000  356.000000
 5778   356.000000  356.000000
 5779   356.000000  356.000000
 5780   356.000000  356.000000
 5781   356.000000  356.000000
 5782   356.000000  356.000000
 5783   356.000000  356.000000
 5784   356.000000  356.000000
 5785   356.000000  356.000000
 5786   356.000000  356.000000
 5787   356.000000  356.000000
 5788   356.000000  356.000000
 5789   356.000000  356.000000
 5790   356.000000  356.000000
 5791   356.000000  356.000000
 5792   356.000000  356.000000
 5793   356.000000  356.000000
 5794   356.000000  356.000000
 5795   356.000000  356.000000
 5796   356.000000  356.000000
 5797   356.000000  356.000000
 5798   356.000000  356.000000
 5799   356.000000  356.000000
 5800   356.000000  356.000000
 5801   356.000000  356.000000
 5802   356.000000  356.000000
 5803   356.000000  356.000000
 5804   356.000000  356.000000
 5805   356.000000  356.000000
 5806   356.000000  356.000000
 5807   356.000000  356.000000
 5808   356.000000  356.000000
 5809   356.000000  356.000000
 5810   356.000000  356.000000
 5811   356.000000  356.000000
 5812   356.000000  356.000000
 5813   356.000000  356.000000
 5814   356.000000  356.000000
 5815   356.000000  356.000000
 5816   356.000000  356.000000
 5817   356.000000  356.000000
 5818   356.000000  356.000000
 5819   356.000000  356.000000
 5820   356.000000  356.000000
 5842   356.000000  356.000000
 5843   356.000000  356.000000
 5865   356.000000  356.000000
 5866   356.000000  356.000000
 5888   356.000000  356.000000
 5889   356.000000  356.000000
 5911   356.000000  356.000000
 5912   356.000000  356.000000
 5934   356.000000  356.000000
 5935   356.000000  356.000000
 5957   356.000000  356.000000
 5958   356.000000  356.000000
 5980   356.000000  356.000000
 5981   356.000000  356.000000
 6003   356.000000  356.000000
 6004   356.000000  356.000000
 6026   356.000000  356.000000
 6027   356.000000  356.000000
 6049   356.000000  356.000000
 6050   356.000000  356.000000
 6072   356.000000  356.000000
 6073   356.000000  356.000000
 6095   356.000000  356.000000
 6096   356.000000  356.000000
 6118   356.000000  356.000000
 6119   356.000000  356.000000
 6141   356.000000  356.000000
 6142   356.000000  356.000000
 6164   356.000000  356.000000
 6165   356.000000  356.000000
 6187   356.000000  356.000000
 6188   356.000000  356.000000
 6210   356.000000  356.000000
 6211   356.000000  356.000000
 6233   356.000000  356.000000
 6234   356.000000  356.000000
 6256   356.000000  356.000000
 6257   356.000000  356.000000
 6279   356.000000  356.000000
 6280   356.000000  356.000000
 6302   356.000000  356.000000
 6303   356.000000  356.000000
 6325   356.000000  356.000000
 6326   356.000000  356.000000
 6348   356.000000  356.000000
 6349   356.000000  356.000000
 6371   356.000000  356.000000
 6372   356.000000  356.000000
 6394   356.000000  356.000000
 6395   356.000000  356.000000
 6417   356.000000  356.000000
 6418   356.000000  356.000000
 6440   356.000000  356.000000
 6441   356.000000  356.000000
 6463   356.000000  356.000000
 6464   356.000000  356.000000
 6486   356.000000  356.000000
 6487   356.000000  356.000000
 6509   356.000000  356.000000
 6510   356.000000  356.000000
 6532   356.000000  356.000000
 6533   356.000000  356.000000
 6555   356.000000  356.000000
 6556   356.000000  356.000000
 6578   356.000000  356.000000
 6579   356.000000  356.000000
 6601   356.000000  356.000000
 6602   356.000000  356.000000
 6624   356.000000  356.000000
 6625   356.000000  356.000000
 6647   356.000000  356.000000
 6648   356.000000  356.000000
 6670   356.000000  356.000000
 6671   356.000000  356.000000
 6693   356.000000  356.000000
 6694   356.000000  356.000000
 6716   356.000000  356.000000
 6717   356.000000  356.000000
 6739   356.000000  356.000000
 6740   356.000000  356.000000
 6741   356.000000  356.000000
 6742   356.000000  356.000000
 6743   356.000000  356.000000
 6744   356.000000  356.000000
 6745   356.000000  356.000000
 6746   356.000000  356.000000
 6747   356.000000  356.000000
 6748   356.000000  356.000000
 6749   356.000000  356.000000
 6750   356.000000  356.000000
 6751   356.000000  356.000000
 6752   356.000000  356.000000
 6753   356.000000  356.000000
 6754   356.000000  356.000000
 6755   356.000000  356.000000
 6756   356.000000  356.000000
 6757   356.000000  356.000000
 6758   356.000000  356.000000
 6759   356.000000  356.000000
 6760   356.000000  356.000000
 6761   356.000000  356.000000
 6762   356.000000  356.000000
 6763   356.000000  356.000000
 6764   356.000000  356.000000
 6765   356.000000  356.000000
 6766   356.000000  356.000000
 6767   356.000000  356.000000
 6768   356.000000  356.000000
 6769   356.000000  356.000000
 6770   356.000000  356.000000
 6771   356.000000  356.000000
 6772   356.000000  356.000000
 6773   356.000000  356.000000
 6774   356.000000  356.000000
 6775   356.000000  356.000000
 6776   356.000000  356.000000
 6777   356.000000  356.000000
 6778   356.000000  356.000000
 6779   356.000000  356.000000
 6780   356.000000  356.000000
 6781   356.000000  356.000000
 6782   356.000000  356.000000
 6783   356.000000  356.000000
 6784   356.000000  356.000000
 6785   356.000000  356.000000
 6786   356.000000  356.000000
 6808   356.000000  356.000000
 6809   356.000000  356.000000
 6831   356.000000  356.000000
 6832   356.000000  356.000000
 6854   356.000000  356.000000
 6855   356.000000  356.000000
 6877   356.000000  356.000000
 6878   356.000000  356.000000
 6900   356.000000  356.000000
 6901   356.000000  356.000000
 6923   356.000000  356.000000
 6924   356.000000  356.000000
 6946   356.000000  356.000000
 6947   356.000000  356.000000
 6969   356.000000  356.000000
 6970   356.000000  356.000000
 6992   356.000000  356.000000
 6993   356.000000  356.000000
 7015   356.000000  356.000000
 7016   356.000000  356.000000
 7038   356.000000  356.000000
 7039   356.000000  356.000000
 7061   356.000000  356.000000
 7062   356.000000  356.000000
 7084   356.000000  356.000000
 7085   356.000000  356.000000
 7107   356.000000  356.000000
 7108   356.000000  356.000000
 7130   356.000000  356.000000
 7131   356.000000  356.000000
 7153   356.000000  356.000000
 7154   356.000000  356.000000
 7176   356.000000  356.000000
 7177   356.000000  356.000000
 7199   356.000000  356.000000
 7200   356.000000  356.000000
 7222   356.000000  356.000000
 7223   356.000000  356.000000
 7245   356.000000  356.000000
 7246   356.000000  356.000000
 7268   356.000000  356.000000
 7269   356.000000  356.000000
 7291   356.000000  356.000000
 7292   356.000000  356.000000
 7314   356.000000  356.000000
 7315   356.000000  356.000000
 7337   356.000000  356.000000
 7338   356.000000  356.000000
 7360   356.000000  356.000000
 7361   356.000000  356.000000
 7383   356.000000  356.000000
 7384   356.000000  356.000000
 7406   356.000000  356.000000
 7407   356.000000  356.000000
 7429   356.000000  356.000000
 7430   356.000000  356.000000
 7452   356.000000  356.000000
 7453   356.000000  356.000000
 7475   356.000000  356.000000
 7476   356.000000  356.000000
 7498   356.000000  356.000000
 7499   356.000000  356.000000
 7521   356.000000  356.000000
 7522   356.000000  356.000000
 7544   356.000000  356.000000