# MODFLOW-USG Layer Property Flow (LPF) Package
 0 0.000000e+000 0 0     
 1
 0
 1.000000e+000
 0
 0
INTERNAL  1.000000e+000  (FREE)  -1  Kx Layer 1
 5.000000e-002 5.000000e-002 5.000000e-002 5.000000e-002 5.000000e-002 5.000000e-002 5.000000e-002 5.000000e-002 5.000000e-002 5.000000e-002
 5.000000e-002 5.000000e-002 5.000000e-002 5.000000e-002 5.000000e-002 5.000000e-002 5.000000e-002 5.000000e-002 5.000000e-002 5.000000e-002
 5.000000e-002 5.000000e-002 5.000000e-002 5.000000e-002 5.000000e-002 5.000000e-002 5.000000e-002 5.000000e-002 5.000000e-002 5.000000e-002
 5.000000e-002 5.000000e-002 5.000000e-002 5.000000e-002 5.000000e-002 5.000000e-002 5.000000e-002 5.000000e-002 5.000000e-002 5.000000e-002
 5.000000e-002 5.000000e-002 5.000000e-002 5.000000e-002 5.000000e-002 5.000000e-002 5.000000e-002 5.000000e-002 5.000000e-002 5.000000e-002
 5.000000e-002 5.000000e-002 5.000000e-002 5.000000e-002 5.000000e-002 5.000000e-002 5.000000e-002 5.000000e-002 5.000000e-002 5.000000e-002
 5.000000e-002 5.000000e-002 5.000000e-002 5.000000e-002 5.000000e-002 5.000000e-002 5.000000e-002 5.000000e-002 5.000000e-002 5.000000e-002
 5.000000e-002 5.000000e-002 5.000000e-002 5.000000e-002 5.000000e-002 5.000000e-002 5.000000e-002 5.000000e-002 5.000000e-002 5.000000e-002
 5.000000e-002 5.000000e-002 5.000000e-002 5.000000e-002 5.000000e-002 5.000000e-002 5.000000e-002 5.000000e-002 5.000000e-002 5.000000e-002
 5.000000e-002 5.000000e-002 5.000000e-002 5.000000e-002 5.000000e-002 5.000000e-002 5.000000e-002 5.000000e-002 5.000000e-002 5.000000e-002
 5.000000e-002 5.000000e-002 5.000000e-002 5.000000e-002 5.000000e-002 5.000000e-002 5.000000e-002 5.000000e-002 5.000000e-002 5.000000e-002
 5.000000e-002 5.000000e-002 5.000000e-002 5.000000e-002 5.000000e-002 5.000000e-002 5.000000e-002 5.000000e-002 5.000000e-002 5.000000e-002
 5.000000e-002
INTERNAL  1.000000e+000  (FREE)  -1  Kz Layer 1
 1.000000e-002 1.000000e-002 1.000000e-002 1.000000e-002 1.000000e-002 1.000000e-002 1.000000e-002 1.000000e-002 1.000000e-002 1.000000e-002
 1.000000e-002 1.000000e-002 1.000000e-002 1.000000e-002 1.000000e-002 1.000000e-002 1.000000e-002 1.000000e-002 1.000000e-002 1.000000e-002
 1.000000e-002 1.000000e-002 1.000000e-002 1.000000e-002 1.000000e-002 1.000000e-002 1.000000e-002 1.000000e-002 1.000000e-002 1.000000e-002
 1.000000e-002 1.000000e-002 1.000000e-002 1.000000e-002 1.000000e-002 1.000000e-002 1.000000e-002 1.000000e-002 1.000000e-002 1.000000e-002
 1.000000e-002 1.000000e-002 1.000000e-002 1.000000e-002 1.000000e-002 1.000000e-002 1.000000e-002 1.000000e-002 1.000000e-002 1.000000e-002
 1.000000e-002 1.000000e-002 1.000000e-002 1.000000e-002 1.000000e-002 1.000000e-002 1.000000e-002 1.000000e-002 1.000000e-002 1.000000e-002
 1.000000e-002 1.000000e-002 1.000000e-002 1.000000e-002 1.000000e-002 1.000000e-002 1.000000e-002 1.000000e-002 1.000000e-002 1.000000e-002
 1.000000e-002 1.000000e-002 1.000000e-002 1.000000e-002 1.000000e-002 1.000000e-002 1.000000e-002 1.000000e-002 1.000000e-002 1.000000e-002
 1.000000e-002 1.000000e-002 1.000000e-002 1.000000e-002 1.000000e-002 1.000000e-002 1.000000e-002 1.000000e-002 1.000000e-002 1.000000e-002
 1.000000e-002 1.000000e-002 1.000000e-002 1.000000e-002 1.000000e-002 1.000000e-002 1.000000e-002 1.000000e-002 1.000000e-002 1.000000e-002
 1.000000e-002 1.000000e-002 1.000000e-002 1.000000e-002 1.000000e-002 1.000000e-002 1.000000e-002 1.000000e-002 1.000000e-002 1.000000e-002
 1.000000e-002 1.000000e-002 1.000000e-002 1.000000e-002 1.000000e-002 1.000000e-002 1.000000e-002 1.000000e-002 1.000000e-002 1.000000e-002
 1.000000e-002
