# MODFLOW-USGs Recharge Package
 1 0
 1
INTERNAL  1.000000e+000  (FREE)  -1  RECHARGE
 1.000000e-003 1.000000e-003 1.000000e-003 1.000000e-003 1.000000e-003 1.000000e-003 1.000000e-003 1.000000e-003 1.000000e-003 1.000000e-003
 1.000000e-003 1.000000e-003 1.000000e-003 1.000000e-003 1.000000e-003 1.000000e-003 1.000000e-003 1.000000e-003 1.000000e-003 1.000000e-003
 1.000000e-003 1.000000e-003 1.000000e-003 1.000000e-003 1.000000e-003 1.000000e-003 1.000000e-003 1.000000e-003 1.000000e-003 1.000000e-003
 1.000000e-003 1.000000e-003 1.000000e-003 1.000000e-003 1.000000e-003 1.000000e-003 1.000000e-003 1.000000e-003 1.000000e-003 1.000000e-003
 1.000000e-003 1.000000e-003 1.000000e-003 1.000000e-003 1.000000e-003 1.000000e-003 1.000000e-003 1.000000e-003 1.000000e-003 1.000000e-003
 1.000000e-003 1.000000e-003 1.000000e-003 1.000000e-003 1.000000e-003 1.000000e-003 1.000000e-003 1.000000e-003 1.000000e-003 1.000000e-003
 1.000000e-003 1.000000e-003 1.000000e-003 1.000000e-003 1.000000e-003 1.000000e-003 1.000000e-003 1.000000e-003 1.000000e-003 1.000000e-003
 1.000000e-003 1.000000e-003 1.000000e-003 1.000000e-003 1.000000e-003 1.000000e-003 1.000000e-003 1.000000e-003 1.000000e-003 1.000000e-003
 1.000000e-003 1.000000e-003 1.000000e-003 1.000000e-003 1.000000e-003 1.000000e-003 1.000000e-003 1.000000e-003 1.000000e-003 1.000000e-003
 1.000000e-003 1.000000e-003 1.000000e-003 1.000000e-003 1.000000e-003 1.000000e-003 1.000000e-003 1.000000e-003 1.000000e-003 1.000000e-003
 1.000000e-003 1.000000e-003 1.000000e-003 1.000000e-003 1.000000e-003 1.000000e-003 1.000000e-003 1.000000e-003 1.000000e-003 1.000000e-003
 1.000000e-003 1.000000e-003 1.000000e-003 1.000000e-003 1.000000e-003 1.000000e-003 1.000000e-003 1.000000e-003 1.000000e-003 1.000000e-003
 1.000000e-003
